/*---------------------------------------------------------------------------*\
| =========                 |                                                 |
| \\      /  F ield         | OpenFOAM: The Open Source CFD Toolbox           |
|  \\    /   O peration     | Version:  2406                                  |
|   \\  /    A nd           | Website:  www.openfoam.com                      |
|    \\/     M anipulation  |                                                 |
\*---------------------------------------------------------------------------*/
Build  : _9bfe8264-20241212 OPENFOAM=2406 patch=241212 version=2406
Arch   : "LSB;label=32;scalar=64"
Exec   : fireFoam -parallel
Date   : Feb 25 2025
Time   : 01:52:41
Host   : Costa
PID    : 85107
I/O    : uncollated
Case   : /home/jbrazza/OpenFOAM/jbrazza-v2406/run/Caixa1Final
nProcs : 4
Hosts  :
(
    (Costa 4)
)
Pstream initialized with:
    floatTransfer      : false
    maxCommsSize       : 0
    nProcsSimpleSum    : 0
    nonBlockingExchange: 0 (tuning: 0)
    exchange algorithm : 0
    commsType          : nonBlocking
    polling iterations : 0
trapFpe: Floating point exception trapping enabled (FOAM_SIGFPE).
fileModificationChecking : Monitoring run-time modified files using timeStampMaster (fileModificationSkew 5, maxFileModificationPolls 20)
allowSystemOperations : Allowing user-supplied system call operations

// * * * * * * * * * * * * * * * * * * * * * * * * * * * * * * * * * * * * * //
Create time

Create mesh for time = 0


PIMPLE: Operating solver in PISO mode

Reading thermophysical properties

Selecting thermodynamics package 
{
    type            hePsiThermo;
    mixture         singleStepReactingMixture;
    transport       sutherland;
    thermo          janaf;
    energy          sensibleEnthalpy;
    equationOfState perfectGas;
    specie          specie;
}

Selecting chemistryReader foamChemistryReader
    elements not defined in "/home/jbrazza/OpenFOAM/jbrazza-v2406/run/Caixa1Final/constant/reactions"
Fuel heat of combustion :5.00312e+07
stoichiometric air-fuel ratio :17.0854
stoichiometric oxygen-fuel ratio :3.98918
Maximum products mass concentrations:
    H2O: 0.124183
    CO2: 0.151685
    N2: 0.724132
Creating component thermo properties:
    multi-component carrier - 5 species
    no liquid components
    no solid components
Creating field rho


Reading field U

Reading/calculating face flux field phi

No MRF models present

Creating turbulence model

Selecting turbulence model type LES
Selecting LES turbulence model kEqn
Selecting LES delta type cubeRootVol
kEqnCoeffs
{
    ck              0.07;
    Ck              0.094;
}

Creating combustion model

Selecting combustion model EDM
Combustion mode: explicit

Reading g

Reading hRef
Calculating field g.h


Reading pRef
GAMG:  Solving for ph_rgh, Initial residual = 1, Final residual = 0.0564078, No Iterations 4
Hydrostatic pressure variation 0.242653
GAMG:  Solving for ph_rgh, Initial residual = 0.00113404, Final residual = 6.92816e-05, No Iterations 4
Hydrostatic pressure variation 0.256528
GAMG:  Solving for ph_rgh, Initial residual = 6.73983e-05, Final residual = 5.4704e-06, No Iterations 4
Hydrostatic pressure variation 0.257347
GAMG:  Solving for ph_rgh, Initial residual = 5.55053e-06, Final residual = 9.7351e-07, No Iterations 3
Hydrostatic pressure variation 0.257397
GAMG:  Solving for ph_rgh, Initial residual = 9.77739e-07, Final residual = 9.77739e-07, No Iterations 0
Hydrostatic pressure variation 0.257397
Creating field dpdt

Creating field kinetic energy K


Constructing reacting cloud
Cloud source terms will be reset
Constructing particle injection models
Selecting injection model none

Constructing surface film model
Selecting surfaceFilmModel none
Creating pyrolysis model
Selecting pyrolysisModel none
Selecting radiationModel fvDOM
Selecting absorptionEmissionModel greyMeanAbsorptionEmission
Selecting scatterModel none
Selecting sootModel none
fvDOM : Allocated 16 rays with average orientation:
	I0 : dAve : 	(0.230038 0.55536 0.392699) : omega : 	0.785398 : d : 	(0.270598 0.653281 0.707107)
	I1 : dAve : 	(0.55536 0.230038 0.392699) : omega : 	0.785398 : d : 	(0.653281 0.270598 0.707107)
	I2 : dAve : 	(0.55536 -0.230038 0.392699) : omega : 	0.785398 : d : 	(0.653281 -0.270598 0.707107)
	I3 : dAve : 	(0.230038 -0.55536 0.392699) : omega : 	0.785398 : d : 	(0.270598 -0.653281 0.707107)
	I4 : dAve : 	(-0.230038 -0.55536 0.392699) : omega : 	0.785398 : d : 	(-0.270598 -0.653281 0.707107)
	I5 : dAve : 	(-0.55536 -0.230038 0.392699) : omega : 	0.785398 : d : 	(-0.653281 -0.270598 0.707107)
	I6 : dAve : 	(-0.55536 0.230038 0.392699) : omega : 	0.785398 : d : 	(-0.653281 0.270598 0.707107)
	I7 : dAve : 	(-0.230038 0.55536 0.392699) : omega : 	0.785398 : d : 	(-0.270598 0.653281 0.707107)
	I8 : dAve : 	(0.230038 0.55536 -0.392699) : omega : 	0.785398 : d : 	(0.270598 0.653281 -0.707107)
	I9 : dAve : 	(0.55536 0.230038 -0.392699) : omega : 	0.785398 : d : 	(0.653281 0.270598 -0.707107)
	I10 : dAve : 	(0.55536 -0.230038 -0.392699) : omega : 	0.785398 : d : 	(0.653281 -0.270598 -0.707107)
	I11 : dAve : 	(0.230038 -0.55536 -0.392699) : omega : 	0.785398 : d : 	(0.270598 -0.653281 -0.707107)
	I12 : dAve : 	(-0.230038 -0.55536 -0.392699) : omega : 	0.785398 : d : 	(-0.270598 -0.653281 -0.707107)
	I13 : dAve : 	(-0.55536 -0.230038 -0.392699) : omega : 	0.785398 : d : 	(-0.653281 -0.270598 -0.707107)
	I14 : dAve : 	(-0.55536 0.230038 -0.392699) : omega : 	0.785398 : d : 	(-0.653281 0.270598 -0.707107)
	I15 : dAve : 	(-0.230038 0.55536 -0.392699) : omega : 	0.785398 : d : 	(-0.270598 0.653281 -0.707107)
Total omega : 12.5664

No finite volume options present
Courant Number mean: 0 max: 0

Starting time loop

Courant Number mean: 0 max: 0
deltaT = 0.01
Time = 0.01

diagonal:  Solving for rho, Initial residual = 0, Final residual = 0, No Iterations 0
PIMPLE: iteration 1
DILUPBiCGStab:  Solving for Ux, Initial residual = 1, Final residual = 1.28666e-10, No Iterations 1
DILUPBiCGStab:  Solving for Uy, Initial residual = 1, Final residual = 4.11057e-11, No Iterations 1
DILUPBiCGStab:  Solving for Uz, Initial residual = 1, Final residual = 7.44321e-11, No Iterations 1
DILUPBiCGStab:  Solving for O2, Initial residual = 0.000312984, Final residual = 1.34876e-09, No Iterations 1
DILUPBiCGStab:  Solving for H2O, Initial residual = 0, Final residual = 0, No Iterations 0
DILUPBiCGStab:  Solving for CH4, Initial residual = 0, Final residual = 0, No Iterations 0
DILUPBiCGStab:  Solving for CO2, Initial residual = 0, Final residual = 0, No Iterations 0
Radiation solver iter: 0
Selecting boundary radiation Model: lookup
Selecting boundary radiation Model: lookup
Selecting boundary radiation Model: lookup
Selecting boundary radiation Model: lookup
Selecting boundary radiation Model: lookup
GAMG:  Solving for ILambda_0_0, Initial residual = 1, Final residual = 1.25888e-15, No Iterations 1
GAMG:  Solving for ILambda_1_0, Initial residual = 1, Final residual = 9.38093e-16, No Iterations 1
GAMG:  Solving for ILambda_2_0, Initial residual = 1, Final residual = 1.02471e-15, No Iterations 1
GAMG:  Solving for ILambda_3_0, Initial residual = 1, Final residual = 1.2465e-15, No Iterations 1
GAMG:  Solving for ILambda_4_0, Initial residual = 1, Final residual = 1.24367e-15, No Iterations 1
GAMG:  Solving for ILambda_5_0, Initial residual = 1, Final residual = 1.03534e-15, No Iterations 1
GAMG:  Solving for ILambda_6_0, Initial residual = 1, Final residual = 9.70513e-16, No Iterations 1
GAMG:  Solving for ILambda_7_0, Initial residual = 1, Final residual = 1.28136e-15, No Iterations 1
GAMG:  Solving for ILambda_8_0, Initial residual = 1, Final residual = 1.15482e-15, No Iterations 1
GAMG:  Solving for ILambda_9_0, Initial residual = 1, Final residual = 1.04029e-15, No Iterations 1
GAMG:  Solving for ILambda_10_0, Initial residual = 1, Final residual = 9.91265e-16, No Iterations 1
GAMG:  Solving for ILambda_11_0, Initial residual = 1, Final residual = 1.15852e-15, No Iterations 1
GAMG:  Solving for ILambda_12_0, Initial residual = 1, Final residual = 1.15721e-15, No Iterations 1
GAMG:  Solving for ILambda_13_0, Initial residual = 1, Final residual = 9.81188e-16, No Iterations 1
GAMG:  Solving for ILambda_14_0, Initial residual = 1, Final residual = 1.04257e-15, No Iterations 1
GAMG:  Solving for ILambda_15_0, Initial residual = 1, Final residual = 1.15106e-15, No Iterations 1
DILUPBiCGStab:  Solving for h, Initial residual = 0.00107053, Final residual = 5.1317e-09, No Iterations 1
min/max(T) = 300, 300
GAMG:  Solving for p_rgh, Initial residual = 1.65955e-05, Final residual = 1.39631e-07, No Iterations 2
diagonal:  Solving for rho, Initial residual = 0, Final residual = 0, No Iterations 0
time step continuity errors : sum local = 1.40223e-12, global = -1.23788e-12, cumulative = -1.23788e-12
GAMG:  Solving for p_rgh, Initial residual = 1.62965e-05, Final residual = 1.35073e-07, No Iterations 2
diagonal:  Solving for rho, Initial residual = 0, Final residual = 0, No Iterations 0
time step continuity errors : sum local = 1.35605e-12, global = 1.18622e-12, cumulative = -5.16513e-14
DILUPBiCGStab:  Solving for k, Initial residual = 1, Final residual = 1.23199e-10, No Iterations 1
ExecutionTime = 0.98 s  ClockTime = 1 s

Courant Number mean: 1.03639e-10 max: 3.32947e-10
deltaT = 0.01
Time = 0.02

diagonal:  Solving for rho, Initial residual = 0, Final residual = 0, No Iterations 0
PIMPLE: iteration 1
DILUPBiCGStab:  Solving for Ux, Initial residual = 0.337404, Final residual = 4.1612e-11, No Iterations 1
DILUPBiCGStab:  Solving for Uy, Initial residual = 0.556125, Final residual = 6.3556e-11, No Iterations 1
DILUPBiCGStab:  Solving for Uz, Initial residual = 0.346423, Final residual = 3.62683e-11, No Iterations 1
DILUPBiCGStab:  Solving for O2, Initial residual = 0.000324666, Final residual = 1.21463e-09, No Iterations 1
DILUPBiCGStab:  Solving for H2O, Initial residual = 0, Final residual = 0, No Iterations 0
DILUPBiCGStab:  Solving for CH4, Initial residual = 0, Final residual = 0, No Iterations 0
DILUPBiCGStab:  Solving for CO2, Initial residual = 0, Final residual = 0, No Iterations 0
DILUPBiCGStab:  Solving for h, Initial residual = 0.999821, Final residual = 1.88554e-10, No Iterations 1
min/max(T) = 300, 300
GAMG:  Solving for p_rgh, Initial residual = 8.31827e-07, Final residual = 8.31827e-07, No Iterations 0
diagonal:  Solving for rho, Initial residual = 0, Final residual = 0, No Iterations 0
time step continuity errors : sum local = 8.37831e-12, global = 8.05735e-12, cumulative = 8.0057e-12
GAMG:  Solving for p_rgh, Initial residual = 8.31811e-07, Final residual = 8.31811e-07, No Iterations 0
diagonal:  Solving for rho, Initial residual = 0, Final residual = 0, No Iterations 0
time step continuity errors : sum local = 8.37816e-12, global = 8.05719e-12, cumulative = 1.60629e-11
DILUPBiCGStab:  Solving for k, Initial residual = 0.999995, Final residual = 1.23188e-10, No Iterations 1
ExecutionTime = 1.37 s  ClockTime = 1 s

Courant Number mean: 2.07193e-10 max: 6.63801e-10
deltaT = 0.01
Time = 0.03

diagonal:  Solving for rho, Initial residual = 0, Final residual = 0, No Iterations 0
PIMPLE: iteration 1
DILUPBiCGStab:  Solving for Ux, Initial residual = 0.201998, Final residual = 2.49113e-11, No Iterations 1
DILUPBiCGStab:  Solving for Uy, Initial residual = 0.361428, Final residual = 4.12991e-11, No Iterations 1
DILUPBiCGStab:  Solving for Uz, Initial residual = 0.20848, Final residual = 2.18395e-11, No Iterations 1
DILUPBiCGStab:  Solving for O2, Initial residual = 0.00032146, Final residual = 1.15278e-09, No Iterations 1
DILUPBiCGStab:  Solving for H2O, Initial residual = 0, Final residual = 0, No Iterations 0
DILUPBiCGStab:  Solving for CH4, Initial residual = 0, Final residual = 0, No Iterations 0
DILUPBiCGStab:  Solving for CO2, Initial residual = 0, Final residual = 0, No Iterations 0
DILUPBiCGStab:  Solving for h, Initial residual = 0.00676461, Final residual = 4.22994e-08, No Iterations 1
min/max(T) = 300, 300
GAMG:  Solving for p_rgh, Initial residual = 1.13642e-06, Final residual = 9.86454e-08, No Iterations 1
diagonal:  Solving for rho, Initial residual = 0, Final residual = 0, No Iterations 0
time step continuity errors : sum local = 9.90424e-13, global = 6.5771e-13, cumulative = 1.67206e-11
GAMG:  Solving for p_rgh, Initial residual = 9.92092e-08, Final residual = 9.92092e-08, No Iterations 0
diagonal:  Solving for rho, Initial residual = 0, Final residual = 0, No Iterations 0
time step continuity errors : sum local = 9.96087e-13, global = 6.66622e-13, cumulative = 1.73872e-11
DILUPBiCGStab:  Solving for k, Initial residual = 0.999985, Final residual = 1.23175e-10, No Iterations 1
ExecutionTime = 1.75 s  ClockTime = 1 s

Courant Number mean: 3.12356e-10 max: 1.00818e-09
deltaT = 0.01
Time = 0.04

diagonal:  Solving for rho, Initial residual = 0, Final residual = 0, No Iterations 0
PIMPLE: iteration 1
DILUPBiCGStab:  Solving for Ux, Initial residual = 0.137207, Final residual = 8.79407e-07, No Iterations 1
DILUPBiCGStab:  Solving for Uy, Initial residual = 0.258303, Final residual = 2.96709e-11, No Iterations 1
DILUPBiCGStab:  Solving for Uz, Initial residual = 0.247707, Final residual = 2.35484e-11, No Iterations 1
DILUPBiCGStab:  Solving for O2, Initial residual = 0.000322304, Final residual = 1.20081e-09, No Iterations 1
DILUPBiCGStab:  Solving for H2O, Initial residual = 0, Final residual = 0, No Iterations 0
DILUPBiCGStab:  Solving for CH4, Initial residual = 0, Final residual = 0, No Iterations 0
DILUPBiCGStab:  Solving for CO2, Initial residual = 0, Final residual = 0, No Iterations 0
DILUPBiCGStab:  Solving for h, Initial residual = 0.725156, Final residual = 1.1992e-10, No Iterations 1
min/max(T) = 300, 300
GAMG:  Solving for p_rgh, Initial residual = 1.13669e-06, Final residual = 7.2066e-08, No Iterations 1
diagonal:  Solving for rho, Initial residual = 0, Final residual = 0, No Iterations 0
time step continuity errors : sum local = 7.23559e-13, global = 5.35847e-13, cumulative = 1.79231e-11
GAMG:  Solving for p_rgh, Initial residual = 7.28063e-08, Final residual = 7.28063e-08, No Iterations 0
diagonal:  Solving for rho, Initial residual = 0, Final residual = 0, No Iterations 0
time step continuity errors : sum local = 7.30994e-13, global = 5.44909e-13, cumulative = 1.8468e-11
DILUPBiCGStab:  Solving for k, Initial residual = 0.999972, Final residual = 1.23162e-10, No Iterations 1
ExecutionTime = 2.13 s  ClockTime = 2 s

Courant Number mean: 4.22899e-10 max: 1.37716e-09
deltaT = 0.01
Time = 0.05

diagonal:  Solving for rho, Initial residual = 0, Final residual = 0, No Iterations 0
PIMPLE: iteration 1
DILUPBiCGStab:  Solving for Ux, Initial residual = 0.111225, Final residual = 7.69567e-07, No Iterations 1
DILUPBiCGStab:  Solving for Uy, Initial residual = 0.194354, Final residual = 2.17885e-11, No Iterations 1
DILUPBiCGStab:  Solving for Uz, Initial residual = 0.221967, Final residual = 9.97807e-07, No Iterations 1
DILUPBiCGStab:  Solving for O2, Initial residual = 0.000324839, Final residual = 1.18207e-09, No Iterations 1
DILUPBiCGStab:  Solving for H2O, Initial residual = 0, Final residual = 0, No Iterations 0
DILUPBiCGStab:  Solving for CH4, Initial residual = 0, Final residual = 0, No Iterations 0
DILUPBiCGStab:  Solving for CO2, Initial residual = 0, Final residual = 0, No Iterations 0
DILUPBiCGStab:  Solving for h, Initial residual = 0.46487, Final residual = 7.90176e-11, No Iterations 1
min/max(T) = 300, 300
GAMG:  Solving for p_rgh, Initial residual = 8.60306e-07, Final residual = 8.60306e-07, No Iterations 0
diagonal:  Solving for rho, Initial residual = 0, Final residual = 0, No Iterations 0
time step continuity errors : sum local = 8.6378e-12, global = 8.50594e-12, cumulative = 2.69739e-11
GAMG:  Solving for p_rgh, Initial residual = 8.60306e-07, Final residual = 8.60306e-07, No Iterations 0
diagonal:  Solving for rho, Initial residual = 0, Final residual = 0, No Iterations 0
time step continuity errors : sum local = 8.6378e-12, global = 8.50594e-12, cumulative = 3.54799e-11
DILUPBiCGStab:  Solving for k, Initial residual = 0.999956, Final residual = 1.23149e-10, No Iterations 1
ExecutionTime = 2.51 s  ClockTime = 2 s

Courant Number mean: 5.3409e-10 max: 1.75329e-09
deltaT = 0.01
Time = 0.06

diagonal:  Solving for rho, Initial residual = 0, Final residual = 0, No Iterations 0
PIMPLE: iteration 1
DILUPBiCGStab:  Solving for Ux, Initial residual = 0.0913477, Final residual = 6.32045e-07, No Iterations 1
DILUPBiCGStab:  Solving for Uy, Initial residual = 0.164695, Final residual = 9.56847e-07, No Iterations 1
DILUPBiCGStab:  Solving for Uz, Initial residual = 0.153921, Final residual = 6.91983e-07, No Iterations 1
DILUPBiCGStab:  Solving for O2, Initial residual = 0.000321578, Final residual = 1.16234e-09, No Iterations 1
DILUPBiCGStab:  Solving for H2O, Initial residual = 0, Final residual = 0, No Iterations 0
DILUPBiCGStab:  Solving for CH4, Initial residual = 0, Final residual = 0, No Iterations 0
DILUPBiCGStab:  Solving for CO2, Initial residual = 0, Final residual = 0, No Iterations 0
DILUPBiCGStab:  Solving for h, Initial residual = 7.47006e-05, Final residual = 7.09841e-10, No Iterations 1
min/max(T) = 300, 300
GAMG:  Solving for p_rgh, Initial residual = 6.45507e-07, Final residual = 6.45507e-07, No Iterations 0
diagonal:  Solving for rho, Initial residual = 0, Final residual = 0, No Iterations 0
time step continuity errors : sum local = 6.48115e-12, global = 5.07294e-12, cumulative = 4.05528e-11
GAMG:  Solving for p_rgh, Initial residual = 6.45507e-07, Final residual = 6.45507e-07, No Iterations 0
diagonal:  Solving for rho, Initial residual = 0, Final residual = 0, No Iterations 0
time step continuity errors : sum local = 6.48115e-12, global = 5.07294e-12, cumulative = 4.56257e-11
DILUPBiCGStab:  Solving for k, Initial residual = 0.999937, Final residual = 1.23136e-10, No Iterations 1
ExecutionTime = 2.88 s  ClockTime = 2 s

Courant Number mean: 6.45474e-10 max: 2.13371e-09
deltaT = 0.01
Time = 0.07

diagonal:  Solving for rho, Initial residual = 0, Final residual = 0, No Iterations 0
PIMPLE: iteration 1
DILUPBiCGStab:  Solving for Ux, Initial residual = 0.0772374, Final residual = 5.34406e-07, No Iterations 1
DILUPBiCGStab:  Solving for Uy, Initial residual = 0.14282, Final residual = 8.29765e-07, No Iterations 1
DILUPBiCGStab:  Solving for Uz, Initial residual = 0.117719, Final residual = 5.29251e-07, No Iterations 1
DILUPBiCGStab:  Solving for O2, Initial residual = 0.000318762, Final residual = 1.14762e-09, No Iterations 1
DILUPBiCGStab:  Solving for H2O, Initial residual = 0, Final residual = 0, No Iterations 0
DILUPBiCGStab:  Solving for CH4, Initial residual = 0, Final residual = 0, No Iterations 0
DILUPBiCGStab:  Solving for CO2, Initial residual = 0, Final residual = 0, No Iterations 0
DILUPBiCGStab:  Solving for h, Initial residual = 1.70075e-05, Final residual = 1.3786e-10, No Iterations 1
min/max(T) = 300, 300
GAMG:  Solving for p_rgh, Initial residual = 7.30454e-07, Final residual = 7.30454e-07, No Iterations 0
diagonal:  Solving for rho, Initial residual = 0, Final residual = 0, No Iterations 0
time step continuity errors : sum local = 7.33405e-12, global = 4.09118e-12, cumulative = 4.97169e-11
GAMG:  Solving for p_rgh, Initial residual = 7.30454e-07, Final residual = 7.30454e-07, No Iterations 0
diagonal:  Solving for rho, Initial residual = 0, Final residual = 0, No Iterations 0
time step continuity errors : sum local = 7.33405e-12, global = 4.09118e-12, cumulative = 5.38081e-11
DILUPBiCGStab:  Solving for k, Initial residual = 0.999914, Final residual = 1.23122e-10, No Iterations 1
ExecutionTime = 3.25 s  ClockTime = 3 s

Courant Number mean: 7.5697e-10 max: 2.51581e-09
deltaT = 0.01
Time = 0.08

diagonal:  Solving for rho, Initial residual = 0, Final residual = 0, No Iterations 0
PIMPLE: iteration 1
DILUPBiCGStab:  Solving for Ux, Initial residual = 0.0667972, Final residual = 4.62168e-07, No Iterations 1
DILUPBiCGStab:  Solving for Uy, Initial residual = 0.126037, Final residual = 7.32264e-07, No Iterations 1
DILUPBiCGStab:  Solving for Uz, Initial residual = 0.0952834, Final residual = 4.28402e-07, No Iterations 1
DILUPBiCGStab:  Solving for O2, Initial residual = 0.000320689, Final residual = 1.17667e-09, No Iterations 1
DILUPBiCGStab:  Solving for H2O, Initial residual = 0, Final residual = 0, No Iterations 0
DILUPBiCGStab:  Solving for CH4, Initial residual = 0, Final residual = 0, No Iterations 0
DILUPBiCGStab:  Solving for CO2, Initial residual = 0, Final residual = 0, No Iterations 0
DILUPBiCGStab:  Solving for h, Initial residual = 1.70299e-05, Final residual = 1.3811e-10, No Iterations 1
min/max(T) = 300, 300
GAMG:  Solving for p_rgh, Initial residual = 8.46226e-07, Final residual = 8.46226e-07, No Iterations 0
diagonal:  Solving for rho, Initial residual = 0, Final residual = 0, No Iterations 0
time step continuity errors : sum local = 8.49645e-12, global = 3.11002e-12, cumulative = 5.69181e-11
GAMG:  Solving for p_rgh, Initial residual = 8.46226e-07, Final residual = 8.46226e-07, No Iterations 0
diagonal:  Solving for rho, Initial residual = 0, Final residual = 0, No Iterations 0
time step continuity errors : sum local = 8.49645e-12, global = 3.11002e-12, cumulative = 6.00281e-11
DILUPBiCGStab:  Solving for k, Initial residual = 0.999887, Final residual = 1.23107e-10, No Iterations 1
ExecutionTime = 3.64 s  ClockTime = 3 s

Courant Number mean: 8.6851e-10 max: 2.89941e-09
deltaT = 0.01
Time = 0.09

diagonal:  Solving for rho, Initial residual = 0, Final residual = 0, No Iterations 0
PIMPLE: iteration 1
DILUPBiCGStab:  Solving for Ux, Initial residual = 0.0588006, Final residual = 4.06839e-07, No Iterations 1
DILUPBiCGStab:  Solving for Uy, Initial residual = 0.112762, Final residual = 6.55142e-07, No Iterations 1
DILUPBiCGStab:  Solving for Uz, Initial residual = 0.0800238, Final residual = 3.59809e-07, No Iterations 1
DILUPBiCGStab:  Solving for O2, Initial residual = 0.000317915, Final residual = 1.12216e-09, No Iterations 1
DILUPBiCGStab:  Solving for H2O, Initial residual = 0, Final residual = 0, No Iterations 0
DILUPBiCGStab:  Solving for CH4, Initial residual = 0, Final residual = 0, No Iterations 0
DILUPBiCGStab:  Solving for CO2, Initial residual = 0, Final residual = 0, No Iterations 0
DILUPBiCGStab:  Solving for h, Initial residual = 1.70319e-05, Final residual = 1.38112e-10, No Iterations 1
min/max(T) = 300, 300
GAMG:  Solving for p_rgh, Initial residual = 9.76509e-07, Final residual = 9.76509e-07, No Iterations 0
diagonal:  Solving for rho, Initial residual = 0, Final residual = 0, No Iterations 0
time step continuity errors : sum local = 9.80454e-12, global = 2.12888e-12, cumulative = 6.2157e-11
GAMG:  Solving for p_rgh, Initial residual = 9.76509e-07, Final residual = 9.76509e-07, No Iterations 0
diagonal:  Solving for rho, Initial residual = 0, Final residual = 0, No Iterations 0
time step continuity errors : sum local = 9.80454e-12, global = 2.12888e-12, cumulative = 6.42859e-11
DILUPBiCGStab:  Solving for k, Initial residual = 0.999857, Final residual = 1.23092e-10, No Iterations 1
ExecutionTime = 4.03 s  ClockTime = 4 s

Courant Number mean: 9.80077e-10 max: 3.28901e-09
deltaT = 0.01
Time = 0.1

diagonal:  Solving for rho, Initial residual = 0, Final residual = 0, No Iterations 0
PIMPLE: iteration 1
DILUPBiCGStab:  Solving for Ux, Initial residual = 0.0524928, Final residual = 3.63195e-07, No Iterations 1
DILUPBiCGStab:  Solving for Uy, Initial residual = 0.102003, Final residual = 5.92637e-07, No Iterations 1
DILUPBiCGStab:  Solving for Uz, Initial residual = 0.0689743, Final residual = 3.10142e-07, No Iterations 1
DILUPBiCGStab:  Solving for O2, Initial residual = 0.000322359, Final residual = 1.1394e-09, No Iterations 1
DILUPBiCGStab:  Solving for H2O, Initial residual = 0, Final residual = 0, No Iterations 0
DILUPBiCGStab:  Solving for CH4, Initial residual = 0, Final residual = 0, No Iterations 0
DILUPBiCGStab:  Solving for CO2, Initial residual = 0, Final residual = 0, No Iterations 0
Radiation solver iter: 0
GAMG:  Solving for ILambda_0_0, Initial residual = 0.961966, Final residual = 0.000745549, No Iterations 1
GAMG:  Solving for ILambda_1_0, Initial residual = 0.959818, Final residual = 0.00027736, No Iterations 1
GAMG:  Solving for ILambda_2_0, Initial residual = 0.953048, Final residual = 0.0241611, No Iterations 1
GAMG:  Solving for ILambda_3_0, Initial residual = 0.946347, Final residual = 0.0229529, No Iterations 1
GAMG:  Solving for ILambda_4_0, Initial residual = 0.946025, Final residual = 0.0202814, No Iterations 1
GAMG:  Solving for ILambda_5_0, Initial residual = 0.952368, Final residual = 0.0130704, No Iterations 1
GAMG:  Solving for ILambda_6_0, Initial residual = 0.959321, Final residual = 0.00504579, No Iterations 1
GAMG:  Solving for ILambda_7_0, Initial residual = 0.961803, Final residual = 0.00290877, No Iterations 1
GAMG:  Solving for ILambda_8_0, Initial residual = 0.961945, Final residual = 0.0201223, No Iterations 1
GAMG:  Solving for ILambda_9_0, Initial residual = 0.959789, Final residual = 0.014763, No Iterations 1
GAMG:  Solving for ILambda_10_0, Initial residual = 0.953006, Final residual = 0.00511985, No Iterations 1
GAMG:  Solving for ILambda_11_0, Initial residual = 0.946296, Final residual = 0.00341955, No Iterations 1
GAMG:  Solving for ILambda_12_0, Initial residual = 0.945973, Final residual = 0.00145281, No Iterations 1
GAMG:  Solving for ILambda_13_0, Initial residual = 0.952326, Final residual = 0.000676387, No Iterations 1
GAMG:  Solving for ILambda_14_0, Initial residual = 0.959291, Final residual = 0.0219742, No Iterations 1
GAMG:  Solving for ILambda_15_0, Initial residual = 0.961782, Final residual = 0.0199668, No Iterations 1
DILUPBiCGStab:  Solving for h, Initial residual = 4.61855e-06, Final residual = 3.88935e-11, No Iterations 1
min/max(T) = 300, 300
GAMG:  Solving for p_rgh, Initial residual = 1.1146e-06, Final residual = 1.58269e-07, No Iterations 1
diagonal:  Solving for rho, Initial residual = 0, Final residual = 0, No Iterations 0
time step continuity errors : sum local = 1.58909e-12, global = -5.06118e-13, cumulative = 6.37798e-11
GAMG:  Solving for p_rgh, Initial residual = 1.58509e-07, Final residual = 1.58509e-07, No Iterations 0
diagonal:  Solving for rho, Initial residual = 0, Final residual = 0, No Iterations 0
time step continuity errors : sum local = 1.59149e-12, global = -5.05247e-13, cumulative = 6.32745e-11
DILUPBiCGStab:  Solving for k, Initial residual = 0.999823, Final residual = 1.23077e-10, No Iterations 1
ExecutionTime = 4.61 s  ClockTime = 4 s

Courant Number mean: 1.09643e-09 max: 3.64238e-09
deltaT = 0.01
Time = 0.11

diagonal:  Solving for rho, Initial residual = 0, Final residual = 0, No Iterations 0
PIMPLE: iteration 1
DILUPBiCGStab:  Solving for Ux, Initial residual = 0.0597211, Final residual = 3.99999e-07, No Iterations 1
DILUPBiCGStab:  Solving for Uy, Initial residual = 0.0873496, Final residual = 4.74445e-07, No Iterations 1
DILUPBiCGStab:  Solving for Uz, Initial residual = 0.0754735, Final residual = 3.27938e-07, No Iterations 1
DILUPBiCGStab:  Solving for O2, Initial residual = 0.000321165, Final residual = 1.12512e-09, No Iterations 1
DILUPBiCGStab:  Solving for H2O, Initial residual = 0, Final residual = 0, No Iterations 0
DILUPBiCGStab:  Solving for CH4, Initial residual = 0, Final residual = 0, No Iterations 0
DILUPBiCGStab:  Solving for CO2, Initial residual = 0, Final residual = 0, No Iterations 0
DILUPBiCGStab:  Solving for h, Initial residual = 0.196242, Final residual = 3.38827e-11, No Iterations 1
min/max(T) = 300, 300
GAMG:  Solving for p_rgh, Initial residual = 4.85312e-07, Final residual = 4.85312e-07, No Iterations 0
diagonal:  Solving for rho, Initial residual = 0, Final residual = 0, No Iterations 0
time step continuity errors : sum local = 4.87273e-12, global = 3.2984e-12, cumulative = 6.65729e-11
GAMG:  Solving for p_rgh, Initial residual = 4.85312e-07, Final residual = 4.85312e-07, No Iterations 0
diagonal:  Solving for rho, Initial residual = 0, Final residual = 0, No Iterations 0
time step continuity errors : sum local = 4.87273e-12, global = 3.2984e-12, cumulative = 6.98713e-11
DILUPBiCGStab:  Solving for k, Initial residual = 0.999786, Final residual = 1.23061e-10, No Iterations 1
ExecutionTime = 5 s  ClockTime = 5 s

Courant Number mean: 1.21298e-09 max: 3.9966e-09
deltaT = 0.01
Time = 0.12

diagonal:  Solving for rho, Initial residual = 0, Final residual = 0, No Iterations 0
PIMPLE: iteration 1
DILUPBiCGStab:  Solving for Ux, Initial residual = 0.0541289, Final residual = 3.62561e-07, No Iterations 1
DILUPBiCGStab:  Solving for Uy, Initial residual = 0.0801915, Final residual = 4.35512e-07, No Iterations 1
DILUPBiCGStab:  Solving for Uz, Initial residual = 0.0656, Final residual = 2.85095e-07, No Iterations 1
DILUPBiCGStab:  Solving for O2, Initial residual = 0.000321393, Final residual = 1.19766e-09, No Iterations 1
DILUPBiCGStab:  Solving for H2O, Initial residual = 0, Final residual = 0, No Iterations 0
DILUPBiCGStab:  Solving for CH4, Initial residual = 0, Final residual = 0, No Iterations 0
DILUPBiCGStab:  Solving for CO2, Initial residual = 0, Final residual = 0, No Iterations 0
DILUPBiCGStab:  Solving for h, Initial residual = 3.4065e-05, Final residual = 3.53383e-10, No Iterations 1
min/max(T) = 300, 300
GAMG:  Solving for p_rgh, Initial residual = 5.48382e-07, Final residual = 5.48382e-07, No Iterations 0
diagonal:  Solving for rho, Initial residual = 0, Final residual = 0, No Iterations 0
time step continuity errors : sum local = 5.50598e-12, global = 2.58242e-12, cumulative = 7.24538e-11
GAMG:  Solving for p_rgh, Initial residual = 5.48381e-07, Final residual = 5.48381e-07, No Iterations 0
diagonal:  Solving for rho, Initial residual = 0, Final residual = 0, No Iterations 0
time step continuity errors : sum local = 5.50598e-12, global = 2.58242e-12, cumulative = 7.50362e-11
DILUPBiCGStab:  Solving for k, Initial residual = 0.999745, Final residual = 1.23045e-10, No Iterations 1
ExecutionTime = 5.39 s  ClockTime = 5 s

Courant Number mean: 1.32954e-09 max: 4.35089e-09
deltaT = 0.01
Time = 0.13

diagonal:  Solving for rho, Initial residual = 0, Final residual = 0, No Iterations 0
PIMPLE: iteration 1
DILUPBiCGStab:  Solving for Ux, Initial residual = 0.0493341, Final residual = 3.30449e-07, No Iterations 1
DILUPBiCGStab:  Solving for Uy, Initial residual = 0.0741022, Final residual = 4.02403e-07, No Iterations 1
DILUPBiCGStab:  Solving for Uz, Initial residual = 0.0580054, Final residual = 2.52134e-07, No Iterations 1
DILUPBiCGStab:  Solving for O2, Initial residual = 0.000323122, Final residual = 1.16541e-09, No Iterations 1
DILUPBiCGStab:  Solving for H2O, Initial residual = 0, Final residual = 0, No Iterations 0
DILUPBiCGStab:  Solving for CH4, Initial residual = 0, Final residual = 0, No Iterations 0
DILUPBiCGStab:  Solving for CO2, Initial residual = 0, Final residual = 0, No Iterations 0
DILUPBiCGStab:  Solving for h, Initial residual = 6.12409e-06, Final residual = 5.53604e-11, No Iterations 1
min/max(T) = 300, 300
GAMG:  Solving for p_rgh, Initial residual = 8.26762e-07, Final residual = 8.26762e-07, No Iterations 0
diagonal:  Solving for rho, Initial residual = 0, Final residual = 0, No Iterations 0
time step continuity errors : sum local = 8.30104e-12, global = 2.68722e-12, cumulative = 7.77234e-11
GAMG:  Solving for p_rgh, Initial residual = 8.26762e-07, Final residual = 8.26762e-07, No Iterations 0
diagonal:  Solving for rho, Initial residual = 0, Final residual = 0, No Iterations 0
time step continuity errors : sum local = 8.30104e-12, global = 2.68722e-12, cumulative = 8.04106e-11
DILUPBiCGStab:  Solving for k, Initial residual = 0.999701, Final residual = 1.23028e-10, No Iterations 1
ExecutionTime = 5.77 s  ClockTime = 5 s

Courant Number mean: 1.44613e-09 max: 4.70524e-09
deltaT = 0.01
Time = 0.14

diagonal:  Solving for rho, Initial residual = 0, Final residual = 0, No Iterations 0
PIMPLE: iteration 1
DILUPBiCGStab:  Solving for Ux, Initial residual = 0.0452315, Final residual = 3.02969e-07, No Iterations 1
DILUPBiCGStab:  Solving for Uy, Initial residual = 0.068861, Final residual = 3.73905e-07, No Iterations 1
DILUPBiCGStab:  Solving for Uz, Initial residual = 0.0519858, Final residual = 2.26007e-07, No Iterations 1
DILUPBiCGStab:  Solving for O2, Initial residual = 0.000321556, Final residual = 1.124e-09, No Iterations 1
DILUPBiCGStab:  Solving for H2O, Initial residual = 0, Final residual = 0, No Iterations 0
DILUPBiCGStab:  Solving for CH4, Initial residual = 0, Final residual = 0, No Iterations 0
DILUPBiCGStab:  Solving for CO2, Initial residual = 0, Final residual = 0, No Iterations 0
DILUPBiCGStab:  Solving for h, Initial residual = 6.12387e-06, Final residual = 5.54155e-11, No Iterations 1
min/max(T) = 300, 300
GAMG:  Solving for p_rgh, Initial residual = 1.14299e-06, Final residual = 1.49144e-07, No Iterations 1
diagonal:  Solving for rho, Initial residual = 0, Final residual = 0, No Iterations 0
time step continuity errors : sum local = 1.49747e-12, global = 3.13432e-13, cumulative = 8.0724e-11
GAMG:  Solving for p_rgh, Initial residual = 1.4949e-07, Final residual = 1.4949e-07, No Iterations 0
diagonal:  Solving for rho, Initial residual = 0, Final residual = 0, No Iterations 0
time step continuity errors : sum local = 1.50094e-12, global = 3.15052e-13, cumulative = 8.10391e-11
DILUPBiCGStab:  Solving for k, Initial residual = 0.999653, Final residual = 1.23011e-10, No Iterations 1
ExecutionTime = 6.17 s  ClockTime = 6 s

Courant Number mean: 1.56121e-09 max: 5.08679e-09
deltaT = 0.01
Time = 0.15

diagonal:  Solving for rho, Initial residual = 0, Final residual = 0, No Iterations 0
PIMPLE: iteration 1
DILUPBiCGStab:  Solving for Ux, Initial residual = 0.0355707, Final residual = 2.41324e-07, No Iterations 1
DILUPBiCGStab:  Solving for Uy, Initial residual = 0.0636197, Final residual = 3.44637e-07, No Iterations 1
DILUPBiCGStab:  Solving for Uz, Initial residual = 0.0465252, Final residual = 2.00291e-07, No Iterations 1
DILUPBiCGStab:  Solving for O2, Initial residual = 0.00032211, Final residual = 1.1543e-09, No Iterations 1
DILUPBiCGStab:  Solving for H2O, Initial residual = 0, Final residual = 0, No Iterations 0
DILUPBiCGStab:  Solving for CH4, Initial residual = 0, Final residual = 0, No Iterations 0
DILUPBiCGStab:  Solving for CO2, Initial residual = 0, Final residual = 0, No Iterations 0
DILUPBiCGStab:  Solving for h, Initial residual = 0.112739, Final residual = 8.01152e-07, No Iterations 1
min/max(T) = 300, 300
GAMG:  Solving for p_rgh, Initial residual = 5.04562e-07, Final residual = 5.04562e-07, No Iterations 0
diagonal:  Solving for rho, Initial residual = 0, Final residual = 0, No Iterations 0
time step continuity errors : sum local = 5.06602e-12, global = -8.82721e-13, cumulative = 8.01564e-11
GAMG:  Solving for p_rgh, Initial residual = 5.04562e-07, Final residual = 5.04562e-07, No Iterations 0
diagonal:  Solving for rho, Initial residual = 0, Final residual = 0, No Iterations 0
time step continuity errors : sum local = 5.06602e-12, global = -8.8272e-13, cumulative = 7.92737e-11
DILUPBiCGStab:  Solving for k, Initial residual = 0.999601, Final residual = 1.22993e-10, No Iterations 1
ExecutionTime = 6.55 s  ClockTime = 6 s

Courant Number mean: 1.67625e-09 max: 5.46821e-09
deltaT = 0.01
Time = 0.16

diagonal:  Solving for rho, Initial residual = 0, Final residual = 0, No Iterations 0
PIMPLE: iteration 1
DILUPBiCGStab:  Solving for Ux, Initial residual = 0.033218, Final residual = 2.25369e-07, No Iterations 1
DILUPBiCGStab:  Solving for Uy, Initial residual = 0.0596611, Final residual = 3.23131e-07, No Iterations 1
DILUPBiCGStab:  Solving for Uz, Initial residual = 0.0425714, Final residual = 1.83364e-07, No Iterations 1
DILUPBiCGStab:  Solving for O2, Initial residual = 0.00032053, Final residual = 1.13188e-09, No Iterations 1
DILUPBiCGStab:  Solving for H2O, Initial residual = 0, Final residual = 0, No Iterations 0
DILUPBiCGStab:  Solving for CH4, Initial residual = 0, Final residual = 0, No Iterations 0
DILUPBiCGStab:  Solving for CO2, Initial residual = 0, Final residual = 0, No Iterations 0
DILUPBiCGStab:  Solving for h, Initial residual = 2.77832e-05, Final residual = 2.52718e-10, No Iterations 1
min/max(T) = 300, 300
GAMG:  Solving for p_rgh, Initial residual = 9.59153e-07, Final residual = 9.59153e-07, No Iterations 0
diagonal:  Solving for rho, Initial residual = 0, Final residual = 0, No Iterations 0
time step continuity errors : sum local = 9.6303e-12, global = -2.83681e-12, cumulative = 7.64368e-11
GAMG:  Solving for p_rgh, Initial residual = 9.59152e-07, Final residual = 9.59152e-07, No Iterations 0
diagonal:  Solving for rho, Initial residual = 0, Final residual = 0, No Iterations 0
time step continuity errors : sum local = 9.63029e-12, global = -2.83681e-12, cumulative = 7.36e-11
DILUPBiCGStab:  Solving for k, Initial residual = 0.999546, Final residual = 1.22975e-10, No Iterations 1
ExecutionTime = 6.95 s  ClockTime = 6 s

Courant Number mean: 1.79133e-09 max: 5.84956e-09
deltaT = 0.01
Time = 0.17

diagonal:  Solving for rho, Initial residual = 0, Final residual = 0, No Iterations 0
PIMPLE: iteration 1
DILUPBiCGStab:  Solving for Ux, Initial residual = 0.0311482, Final residual = 2.11331e-07, No Iterations 1
DILUPBiCGStab:  Solving for Uy, Initial residual = 0.0561613, Final residual = 3.04116e-07, No Iterations 1
DILUPBiCGStab:  Solving for Uz, Initial residual = 0.0392374, Final residual = 1.69084e-07, No Iterations 1
DILUPBiCGStab:  Solving for O2, Initial residual = 0.000321296, Final residual = 1.13477e-09, No Iterations 1
DILUPBiCGStab:  Solving for H2O, Initial residual = 0, Final residual = 0, No Iterations 0
DILUPBiCGStab:  Solving for CH4, Initial residual = 0, Final residual = 0, No Iterations 0
DILUPBiCGStab:  Solving for CO2, Initial residual = 0, Final residual = 0, No Iterations 0
DILUPBiCGStab:  Solving for h, Initial residual = 6.24263e-06, Final residual = 5.5416e-11, No Iterations 1
min/max(T) = 300, 300
GAMG:  Solving for p_rgh, Initial residual = 1.47275e-06, Final residual = 1.30358e-07, No Iterations 1
diagonal:  Solving for rho, Initial residual = 0, Final residual = 0, No Iterations 0
time step continuity errors : sum local = 1.30885e-12, global = -6.08268e-14, cumulative = 7.35392e-11
GAMG:  Solving for p_rgh, Initial residual = 1.30532e-07, Final residual = 1.30532e-07, No Iterations 0
diagonal:  Solving for rho, Initial residual = 0, Final residual = 0, No Iterations 0
time step continuity errors : sum local = 1.3106e-12, global = -6.45099e-14, cumulative = 7.34747e-11
DILUPBiCGStab:  Solving for k, Initial residual = 0.999486, Final residual = 1.22957e-10, No Iterations 1
ExecutionTime = 7.37 s  ClockTime = 7 s

Courant Number mean: 1.90189e-09 max: 6.19472e-09
deltaT = 0.01
Time = 0.18

diagonal:  Solving for rho, Initial residual = 0, Final residual = 0, No Iterations 0
PIMPLE: iteration 1
DILUPBiCGStab:  Solving for Ux, Initial residual = 0.0290236, Final residual = 1.88956e-07, No Iterations 1
DILUPBiCGStab:  Solving for Uy, Initial residual = 0.0551638, Final residual = 3.10855e-07, No Iterations 1
DILUPBiCGStab:  Solving for Uz, Initial residual = 0.0304931, Final residual = 1.30676e-07, No Iterations 1
DILUPBiCGStab:  Solving for O2, Initial residual = 0.000322187, Final residual = 1.17002e-09, No Iterations 1
DILUPBiCGStab:  Solving for H2O, Initial residual = 0, Final residual = 0, No Iterations 0
DILUPBiCGStab:  Solving for CH4, Initial residual = 0, Final residual = 0, No Iterations 0
DILUPBiCGStab:  Solving for CO2, Initial residual = 0, Final residual = 0, No Iterations 0
DILUPBiCGStab:  Solving for h, Initial residual = 0.124922, Final residual = 2.53029e-11, No Iterations 1
min/max(T) = 300, 300
GAMG:  Solving for p_rgh, Initial residual = 8.14509e-07, Final residual = 8.14509e-07, No Iterations 0
diagonal:  Solving for rho, Initial residual = 0, Final residual = 0, No Iterations 0
time step continuity errors : sum local = 8.178e-12, global = -3.52676e-12, cumulative = 6.99479e-11
GAMG:  Solving for p_rgh, Initial residual = 8.14509e-07, Final residual = 8.14509e-07, No Iterations 0
diagonal:  Solving for rho, Initial residual = 0, Final residual = 0, No Iterations 0
time step continuity errors : sum local = 8.178e-12, global = -3.52676e-12, cumulative = 6.64212e-11
DILUPBiCGStab:  Solving for k, Initial residual = 0.999423, Final residual = 1.22938e-10, No Iterations 1
ExecutionTime = 7.78 s  ClockTime = 7 s

Courant Number mean: 2.0124e-09 max: 6.53853e-09
deltaT = 0.01
Time = 0.19

diagonal:  Solving for rho, Initial residual = 0, Final residual = 0, No Iterations 0
PIMPLE: iteration 1
DILUPBiCGStab:  Solving for Ux, Initial residual = 0.0274248, Final residual = 1.78536e-07, No Iterations 1
DILUPBiCGStab:  Solving for Uy, Initial residual = 0.0521575, Final residual = 2.93958e-07, No Iterations 1
DILUPBiCGStab:  Solving for Uz, Initial residual = 0.0287891, Final residual = 1.23448e-07, No Iterations 1
DILUPBiCGStab:  Solving for O2, Initial residual = 0.000322166, Final residual = 1.10938e-09, No Iterations 1
DILUPBiCGStab:  Solving for H2O, Initial residual = 0, Final residual = 0, No Iterations 0
DILUPBiCGStab:  Solving for CH4, Initial residual = 0, Final residual = 0, No Iterations 0
DILUPBiCGStab:  Solving for CO2, Initial residual = 0, Final residual = 0, No Iterations 0
DILUPBiCGStab:  Solving for h, Initial residual = 3.27103e-05, Final residual = 3.72743e-10, No Iterations 1
min/max(T) = 300, 300
GAMG:  Solving for p_rgh, Initial residual = 1.4547e-06, Final residual = 9.10061e-08, No Iterations 1
diagonal:  Solving for rho, Initial residual = 0, Final residual = 0, No Iterations 0
time step continuity errors : sum local = 9.13738e-13, global = 2.08634e-14, cumulative = 6.6442e-11
GAMG:  Solving for p_rgh, Initial residual = 9.09954e-08, Final residual = 9.09954e-08, No Iterations 0
diagonal:  Solving for rho, Initial residual = 0, Final residual = 0, No Iterations 0
time step continuity errors : sum local = 9.13631e-13, global = 1.90523e-14, cumulative = 6.64611e-11
DILUPBiCGStab:  Solving for k, Initial residual = 0.999357, Final residual = 1.22918e-10, No Iterations 1
ExecutionTime = 8.18 s  ClockTime = 8 s

Courant Number mean: 2.12157e-09 max: 6.90042e-09
deltaT = 0.01
Time = 0.2

diagonal:  Solving for rho, Initial residual = 0, Final residual = 0, No Iterations 0
PIMPLE: iteration 1
DILUPBiCGStab:  Solving for Ux, Initial residual = 0.0256269, Final residual = 1.6625e-07, No Iterations 1
DILUPBiCGStab:  Solving for Uy, Initial residual = 0.0519426, Final residual = 2.97903e-07, No Iterations 1
DILUPBiCGStab:  Solving for Uz, Initial residual = 0.0232476, Final residual = 1.02349e-07, No Iterations 1
DILUPBiCGStab:  Solving for O2, Initial residual = 0.000321693, Final residual = 1.12535e-09, No Iterations 1
DILUPBiCGStab:  Solving for H2O, Initial residual = 0, Final residual = 0, No Iterations 0
DILUPBiCGStab:  Solving for CH4, Initial residual = 0, Final residual = 0, No Iterations 0
DILUPBiCGStab:  Solving for CO2, Initial residual = 0, Final residual = 0, No Iterations 0
Radiation solver iter: 0
GAMG:  Solving for ILambda_0_0, Initial residual = 0.118763, Final residual = 0.000260381, No Iterations 1
GAMG:  Solving for ILambda_1_0, Initial residual = 0.11175, Final residual = 0.000115992, No Iterations 1
GAMG:  Solving for ILambda_2_0, Initial residual = 0.0991448, Final residual = 0.00376383, No Iterations 1
GAMG:  Solving for ILambda_3_0, Initial residual = 0.0891745, Final residual = 0.00271477, No Iterations 1
GAMG:  Solving for ILambda_4_0, Initial residual = 0.0886591, Final residual = 0.00240726, No Iterations 1
GAMG:  Solving for ILambda_5_0, Initial residual = 0.096888, Final residual = 0.00165112, No Iterations 1
GAMG:  Solving for ILambda_6_0, Initial residual = 0.111146, Final residual = 0.00096914, No Iterations 1
GAMG:  Solving for ILambda_7_0, Initial residual = 0.118369, Final residual = 0.000667042, No Iterations 1
GAMG:  Solving for ILambda_8_0, Initial residual = 0.121515, Final residual = 0.00445463, No Iterations 1
GAMG:  Solving for ILambda_9_0, Initial residual = 0.112519, Final residual = 0.00292799, No Iterations 1
GAMG:  Solving for ILambda_10_0, Initial residual = 0.0959716, Final residual = 0.000446017, No Iterations 1
GAMG:  Solving for ILambda_11_0, Initial residual = 0.0857372, Final residual = 0.000261364, No Iterations 1
GAMG:  Solving for ILambda_12_0, Initial residual = 0.0854307, Final residual = 0.000130799, No Iterations 1
GAMG:  Solving for ILambda_13_0, Initial residual = 0.0951381, Final residual = 8.83753e-05, No Iterations 1
GAMG:  Solving for ILambda_14_0, Initial residual = 0.114286, Final residual = 0.00495207, No Iterations 1
GAMG:  Solving for ILambda_15_0, Initial residual = 0.120993, Final residual = 0.00457288, No Iterations 1
DILUPBiCGStab:  Solving for h, Initial residual = 0.138868, Final residual = 2.18913e-11, No Iterations 1
min/max(T) = 300, 300
GAMG:  Solving for p_rgh, Initial residual = 7.34139e-07, Final residual = 7.34139e-07, No Iterations 0
diagonal:  Solving for rho, Initial residual = 0, Final residual = 0, No Iterations 0
time step continuity errors : sum local = 7.37105e-12, global = -3.9446e-12, cumulative = 6.25165e-11
GAMG:  Solving for p_rgh, Initial residual = 7.34139e-07, Final residual = 7.34139e-07, No Iterations 0
diagonal:  Solving for rho, Initial residual = 0, Final residual = 0, No Iterations 0
time step continuity errors : sum local = 7.37105e-12, global = -3.9446e-12, cumulative = 5.85719e-11
DILUPBiCGStab:  Solving for k, Initial residual = 0.999286, Final residual = 1.22898e-10, No Iterations 1
ExecutionTime = 8.79 s  ClockTime = 8 s

Courant Number mean: 2.2308e-09 max: 7.2638e-09
deltaT = 0.01
Time = 0.21

diagonal:  Solving for rho, Initial residual = 0, Final residual = 0, No Iterations 0
PIMPLE: iteration 1
DILUPBiCGStab:  Solving for Ux, Initial residual = 0.0243646, Final residual = 1.58052e-07, No Iterations 1
DILUPBiCGStab:  Solving for Uy, Initial residual = 0.0493498, Final residual = 2.82967e-07, No Iterations 1
DILUPBiCGStab:  Solving for Uz, Initial residual = 0.022257, Final residual = 9.80222e-08, No Iterations 1
DILUPBiCGStab:  Solving for O2, Initial residual = 0.000320918, Final residual = 1.13106e-09, No Iterations 1
DILUPBiCGStab:  Solving for H2O, Initial residual = 0, Final residual = 0, No Iterations 0
DILUPBiCGStab:  Solving for CH4, Initial residual = 0, Final residual = 0, No Iterations 0
DILUPBiCGStab:  Solving for CO2, Initial residual = 0, Final residual = 0, No Iterations 0
DILUPBiCGStab:  Solving for h, Initial residual = 3.41849e-05, Final residual = 3.35259e-10, No Iterations 1
min/max(T) = 300, 300
GAMG:  Solving for p_rgh, Initial residual = 1.27808e-06, Final residual = 8.04514e-08, No Iterations 1
diagonal:  Solving for rho, Initial residual = 0, Final residual = 0, No Iterations 0
time step continuity errors : sum local = 8.07765e-13, global = -9.55175e-14, cumulative = 5.84764e-11
GAMG:  Solving for p_rgh, Initial residual = 8.01835e-08, Final residual = 8.01835e-08, No Iterations 0
diagonal:  Solving for rho, Initial residual = 0, Final residual = 0, No Iterations 0
time step continuity errors : sum local = 8.05074e-13, global = -9.7983e-14, cumulative = 5.83784e-11
DILUPBiCGStab:  Solving for k, Initial residual = 0.999212, Final residual = 1.22879e-10, No Iterations 1
ExecutionTime = 9.18 s  ClockTime = 9 s

Courant Number mean: 2.34094e-09 max: 7.61449e-09
deltaT = 0.01
Time = 0.22

diagonal:  Solving for rho, Initial residual = 0, Final residual = 0, No Iterations 0
PIMPLE: iteration 1
DILUPBiCGStab:  Solving for Ux, Initial residual = 0.0229107, Final residual = 1.49746e-07, No Iterations 1
DILUPBiCGStab:  Solving for Uy, Initial residual = 0.0487743, Final residual = 2.84102e-07, No Iterations 1
DILUPBiCGStab:  Solving for Uz, Initial residual = 0.0189872, Final residual = 9.03773e-08, No Iterations 1
DILUPBiCGStab:  Solving for O2, Initial residual = 0.00032237, Final residual = 1.10039e-09, No Iterations 1
DILUPBiCGStab:  Solving for H2O, Initial residual = 0, Final residual = 0, No Iterations 0
DILUPBiCGStab:  Solving for CH4, Initial residual = 0, Final residual = 0, No Iterations 0
DILUPBiCGStab:  Solving for CO2, Initial residual = 0, Final residual = 0, No Iterations 0
DILUPBiCGStab:  Solving for h, Initial residual = 0.129062, Final residual = 7.32601e-07, No Iterations 1
min/max(T) = 300, 300
GAMG:  Solving for p_rgh, Initial residual = 6.41247e-07, Final residual = 6.41247e-07, No Iterations 0
diagonal:  Solving for rho, Initial residual = 0, Final residual = 0, No Iterations 0
time step continuity errors : sum local = 6.43837e-12, global = -2.24057e-12, cumulative = 5.61378e-11
GAMG:  Solving for p_rgh, Initial residual = 6.41246e-07, Final residual = 6.41246e-07, No Iterations 0
diagonal:  Solving for rho, Initial residual = 0, Final residual = 0, No Iterations 0
time step continuity errors : sum local = 6.43836e-12, global = -2.24057e-12, cumulative = 5.38973e-11
DILUPBiCGStab:  Solving for k, Initial residual = 0.999134, Final residual = 1.22858e-10, No Iterations 1
ExecutionTime = 9.62 s  ClockTime = 9 s

Courant Number mean: 2.45106e-09 max: 7.9643e-09
deltaT = 0.01
Time = 0.23

diagonal:  Solving for rho, Initial residual = 0, Final residual = 0, No Iterations 0
PIMPLE: iteration 1
DILUPBiCGStab:  Solving for Ux, Initial residual = 0.0218946, Final residual = 1.43099e-07, No Iterations 1
DILUPBiCGStab:  Solving for Uy, Initial residual = 0.0465399, Final residual = 2.71136e-07, No Iterations 1
DILUPBiCGStab:  Solving for Uz, Initial residual = 0.0183019, Final residual = 8.71526e-08, No Iterations 1
DILUPBiCGStab:  Solving for O2, Initial residual = 0.000319534, Final residual = 1.09494e-09, No Iterations 1
DILUPBiCGStab:  Solving for H2O, Initial residual = 0, Final residual = 0, No Iterations 0
DILUPBiCGStab:  Solving for CH4, Initial residual = 0, Final residual = 0, No Iterations 0
DILUPBiCGStab:  Solving for CO2, Initial residual = 0, Final residual = 0, No Iterations 0
DILUPBiCGStab:  Solving for h, Initial residual = 2.82156e-05, Final residual = 2.25856e-10, No Iterations 1
min/max(T) = 300, 300
GAMG:  Solving for p_rgh, Initial residual = 1.13468e-06, Final residual = 7.3897e-08, No Iterations 1
diagonal:  Solving for rho, Initial residual = 0, Final residual = 0, No Iterations 0
time step continuity errors : sum local = 7.41955e-13, global = -6.23932e-14, cumulative = 5.38349e-11
GAMG:  Solving for p_rgh, Initial residual = 7.34375e-08, Final residual = 7.34375e-08, No Iterations 0
diagonal:  Solving for rho, Initial residual = 0, Final residual = 0, No Iterations 0
time step continuity errors : sum local = 7.3734e-13, global = -6.28253e-14, cumulative = 5.3772e-11
DILUPBiCGStab:  Solving for k, Initial residual = 0.999053, Final residual = 1.22837e-10, No Iterations 1
ExecutionTime = 10.02 s  ClockTime = 9 s

Courant Number mean: 2.56094e-09 max: 8.32125e-09
deltaT = 0.01
Time = 0.24

diagonal:  Solving for rho, Initial residual = 0, Final residual = 0, No Iterations 0
PIMPLE: iteration 1
DILUPBiCGStab:  Solving for Ux, Initial residual = 0.0207312, Final residual = 1.35466e-07, No Iterations 1
DILUPBiCGStab:  Solving for Uy, Initial residual = 0.0452163, Final residual = 2.62706e-07, No Iterations 1
DILUPBiCGStab:  Solving for Uz, Initial residual = 0.0164945, Final residual = 7.70634e-08, No Iterations 1
DILUPBiCGStab:  Solving for O2, Initial residual = 0.000320137, Final residual = 1.17403e-09, No Iterations 1
DILUPBiCGStab:  Solving for H2O, Initial residual = 0, Final residual = 0, No Iterations 0
DILUPBiCGStab:  Solving for CH4, Initial residual = 0, Final residual = 0, No Iterations 0
DILUPBiCGStab:  Solving for CO2, Initial residual = 0, Final residual = 0, No Iterations 0
DILUPBiCGStab:  Solving for h, Initial residual = 0.075069, Final residual = 5.11282e-07, No Iterations 1
min/max(T) = 300, 300
GAMG:  Solving for p_rgh, Initial residual = 5.90595e-07, Final residual = 5.90595e-07, No Iterations 0
diagonal:  Solving for rho, Initial residual = 0, Final residual = 0, No Iterations 0
time step continuity errors : sum local = 5.92981e-12, global = -7.92381e-13, cumulative = 5.29797e-11
GAMG:  Solving for p_rgh, Initial residual = 5.90595e-07, Final residual = 5.90595e-07, No Iterations 0
diagonal:  Solving for rho, Initial residual = 0, Final residual = 0, No Iterations 0
time step continuity errors : sum local = 5.92981e-12, global = -7.92382e-13, cumulative = 5.21873e-11
DILUPBiCGStab:  Solving for k, Initial residual = 0.998968, Final residual = 1.22815e-10, No Iterations 1
ExecutionTime = 10.4 s  ClockTime = 10 s

Courant Number mean: 2.67083e-09 max: 8.67852e-09
deltaT = 0.01
Time = 0.25

diagonal:  Solving for rho, Initial residual = 0, Final residual = 0, No Iterations 0
PIMPLE: iteration 1
DILUPBiCGStab:  Solving for Ux, Initial residual = 0.0198949, Final residual = 1.29997e-07, No Iterations 1
DILUPBiCGStab:  Solving for Uy, Initial residual = 0.0433155, Final residual = 2.51591e-07, No Iterations 1
DILUPBiCGStab:  Solving for Uz, Initial residual = 0.0159708, Final residual = 7.46606e-08, No Iterations 1
DILUPBiCGStab:  Solving for O2, Initial residual = 0.00031916, Final residual = 1.12547e-09, No Iterations 1
DILUPBiCGStab:  Solving for H2O, Initial residual = 0, Final residual = 0, No Iterations 0
DILUPBiCGStab:  Solving for CH4, Initial residual = 0, Final residual = 0, No Iterations 0
DILUPBiCGStab:  Solving for CO2, Initial residual = 0, Final residual = 0, No Iterations 0
DILUPBiCGStab:  Solving for h, Initial residual = 1.57798e-05, Final residual = 1.37634e-10, No Iterations 1
min/max(T) = 300, 300
GAMG:  Solving for p_rgh, Initial residual = 1.15775e-06, Final residual = 9.05296e-08, No Iterations 1
diagonal:  Solving for rho, Initial residual = 0, Final residual = 0, No Iterations 0
time step continuity errors : sum local = 9.08952e-13, global = 5.4516e-15, cumulative = 5.21927e-11
GAMG:  Solving for p_rgh, Initial residual = 8.98613e-08, Final residual = 8.98613e-08, No Iterations 0
diagonal:  Solving for rho, Initial residual = 0, Final residual = 0, No Iterations 0
time step continuity errors : sum local = 9.02243e-13, global = 5.39765e-15, cumulative = 5.21981e-11
DILUPBiCGStab:  Solving for k, Initial residual = 0.998879, Final residual = 1.22793e-10, No Iterations 1
ExecutionTime = 10.78 s  ClockTime = 10 s

Courant Number mean: 2.7802e-09 max: 9.03311e-09
deltaT = 0.01
Time = 0.26

diagonal:  Solving for rho, Initial residual = 0, Final residual = 0, No Iterations 0
PIMPLE: iteration 1
DILUPBiCGStab:  Solving for Ux, Initial residual = 0.0189553, Final residual = 1.23458e-07, No Iterations 1
DILUPBiCGStab:  Solving for Uy, Initial residual = 0.0413077, Final residual = 2.41924e-07, No Iterations 1
DILUPBiCGStab:  Solving for Uz, Initial residual = 0.0155814, Final residual = 7.15845e-08, No Iterations 1
DILUPBiCGStab:  Solving for O2, Initial residual = 0.000321237, Final residual = 1.16103e-09, No Iterations 1
DILUPBiCGStab:  Solving for H2O, Initial residual = 0, Final residual = 0, No Iterations 0
DILUPBiCGStab:  Solving for CH4, Initial residual = 0, Final residual = 0, No Iterations 0
DILUPBiCGStab:  Solving for CO2, Initial residual = 0, Final residual = 0, No Iterations 0
DILUPBiCGStab:  Solving for h, Initial residual = 0.0462297, Final residual = 3.06822e-07, No Iterations 1
min/max(T) = 300, 300
GAMG:  Solving for p_rgh, Initial residual = 6.93305e-07, Final residual = 6.93305e-07, No Iterations 0
diagonal:  Solving for rho, Initial residual = 0, Final residual = 0, No Iterations 0
time step continuity errors : sum local = 6.96105e-12, global = 1.45001e-12, cumulative = 5.36481e-11
GAMG:  Solving for p_rgh, Initial residual = 6.93305e-07, Final residual = 6.93305e-07, No Iterations 0
diagonal:  Solving for rho, Initial residual = 0, Final residual = 0, No Iterations 0
time step continuity errors : sum local = 6.96105e-12, global = 1.45001e-12, cumulative = 5.50981e-11
DILUPBiCGStab:  Solving for k, Initial residual = 0.998786, Final residual = 1.2277e-10, No Iterations 1
ExecutionTime = 11.15 s  ClockTime = 11 s

Courant Number mean: 2.88957e-09 max: 9.38763e-09
deltaT = 0.01
Time = 0.27

diagonal:  Solving for rho, Initial residual = 0, Final residual = 0, No Iterations 0
PIMPLE: iteration 1
DILUPBiCGStab:  Solving for Ux, Initial residual = 0.0182519, Final residual = 1.1887e-07, No Iterations 1
DILUPBiCGStab:  Solving for Uy, Initial residual = 0.0397144, Final residual = 2.32634e-07, No Iterations 1
DILUPBiCGStab:  Solving for Uz, Initial residual = 0.0151161, Final residual = 6.94942e-08, No Iterations 1
DILUPBiCGStab:  Solving for O2, Initial residual = 0.000322743, Final residual = 1.09444e-09, No Iterations 1
DILUPBiCGStab:  Solving for H2O, Initial residual = 0, Final residual = 0, No Iterations 0
DILUPBiCGStab:  Solving for CH4, Initial residual = 0, Final residual = 0, No Iterations 0
DILUPBiCGStab:  Solving for CO2, Initial residual = 0, Final residual = 0, No Iterations 0
DILUPBiCGStab:  Solving for h, Initial residual = 1.22726e-05, Final residual = 8.91955e-11, No Iterations 1
min/max(T) = 300, 300
GAMG:  Solving for p_rgh, Initial residual = 1.30444e-06, Final residual = 1.19482e-07, No Iterations 1
diagonal:  Solving for rho, Initial residual = 0, Final residual = 0, No Iterations 0
time step continuity errors : sum local = 1.19964e-12, global = 1.24625e-13, cumulative = 5.52228e-11
GAMG:  Solving for p_rgh, Initial residual = 1.18537e-07, Final residual = 1.18537e-07, No Iterations 0
diagonal:  Solving for rho, Initial residual = 0, Final residual = 0, No Iterations 0
time step continuity errors : sum local = 1.19016e-12, global = 1.26258e-13, cumulative = 5.5349e-11
DILUPBiCGStab:  Solving for k, Initial residual = 0.99869, Final residual = 1.22748e-10, No Iterations 1
ExecutionTime = 11.54 s  ClockTime = 11 s

Courant Number mean: 2.99946e-09 max: 9.75292e-09
deltaT = 0.01
Time = 0.28

diagonal:  Solving for rho, Initial residual = 0, Final residual = 0, No Iterations 0
PIMPLE: iteration 1
DILUPBiCGStab:  Solving for Ux, Initial residual = 0.017479, Final residual = 1.14269e-07, No Iterations 1
DILUPBiCGStab:  Solving for Uy, Initial residual = 0.0374278, Final residual = 2.15821e-07, No Iterations 1
DILUPBiCGStab:  Solving for Uz, Initial residual = 0.0160842, Final residual = 7.26399e-08, No Iterations 1
DILUPBiCGStab:  Solving for O2, Initial residual = 0.000318214, Final residual = 1.11245e-09, No Iterations 1
DILUPBiCGStab:  Solving for H2O, Initial residual = 0, Final residual = 0, No Iterations 0
DILUPBiCGStab:  Solving for CH4, Initial residual = 0, Final residual = 0, No Iterations 0
DILUPBiCGStab:  Solving for CO2, Initial residual = 0, Final residual = 0, No Iterations 0
DILUPBiCGStab:  Solving for h, Initial residual = 0.0834993, Final residual = 6.13512e-07, No Iterations 1
min/max(T) = 300, 300
GAMG:  Solving for p_rgh, Initial residual = 8.74826e-07, Final residual = 8.74826e-07, No Iterations 0
diagonal:  Solving for rho, Initial residual = 0, Final residual = 0, No Iterations 0
time step continuity errors : sum local = 8.7836e-12, global = 2.13631e-12, cumulative = 5.74853e-11
GAMG:  Solving for p_rgh, Initial residual = 8.74825e-07, Final residual = 8.74825e-07, No Iterations 0
diagonal:  Solving for rho, Initial residual = 0, Final residual = 0, No Iterations 0
time step continuity errors : sum local = 8.7836e-12, global = 2.13631e-12, cumulative = 5.96217e-11
DILUPBiCGStab:  Solving for k, Initial residual = 0.998589, Final residual = 1.22724e-10, No Iterations 1
ExecutionTime = 11.94 s  ClockTime = 11 s

Courant Number mean: 3.10936e-09 max: 1.01183e-08
deltaT = 0.01
Time = 0.29

diagonal:  Solving for rho, Initial residual = 0, Final residual = 0, No Iterations 0
PIMPLE: iteration 1
DILUPBiCGStab:  Solving for Ux, Initial residual = 0.0168766, Final residual = 1.10326e-07, No Iterations 1
DILUPBiCGStab:  Solving for Uy, Initial residual = 0.0361041, Final residual = 2.08143e-07, No Iterations 1
DILUPBiCGStab:  Solving for Uz, Initial residual = 0.0155873, Final residual = 7.04722e-08, No Iterations 1
DILUPBiCGStab:  Solving for O2, Initial residual = 0.000320433, Final residual = 1.10176e-09, No Iterations 1
DILUPBiCGStab:  Solving for H2O, Initial residual = 0, Final residual = 0, No Iterations 0
DILUPBiCGStab:  Solving for CH4, Initial residual = 0, Final residual = 0, No Iterations 0
DILUPBiCGStab:  Solving for CO2, Initial residual = 0, Final residual = 0, No Iterations 0
DILUPBiCGStab:  Solving for h, Initial residual = 1.82584e-05, Final residual = 1.58698e-10, No Iterations 1
min/max(T) = 300, 300
GAMG:  Solving for p_rgh, Initial residual = 1.57692e-06, Final residual = 1.55928e-07, No Iterations 1
diagonal:  Solving for rho, Initial residual = 0, Final residual = 0, No Iterations 0
time step continuity errors : sum local = 1.56558e-12, global = 8.46225e-14, cumulative = 5.97063e-11
GAMG:  Solving for p_rgh, Initial residual = 1.54638e-07, Final residual = 1.54638e-07, No Iterations 0
diagonal:  Solving for rho, Initial residual = 0, Final residual = 0, No Iterations 0
time step continuity errors : sum local = 1.55263e-12, global = 8.59312e-14, cumulative = 5.97922e-11
DILUPBiCGStab:  Solving for k, Initial residual = 0.998486, Final residual = 1.227e-10, No Iterations 1
ExecutionTime = 12.34 s  ClockTime = 12 s

Courant Number mean: 3.21994e-09 max: 1.04825e-08
deltaT = 0.01
Time = 0.3

diagonal:  Solving for rho, Initial residual = 0, Final residual = 0, No Iterations 0
PIMPLE: iteration 1
DILUPBiCGStab:  Solving for Ux, Initial residual = 0.0163611, Final residual = 1.07324e-07, No Iterations 1
DILUPBiCGStab:  Solving for Uy, Initial residual = 0.0338994, Final residual = 1.93656e-07, No Iterations 1
DILUPBiCGStab:  Solving for Uz, Initial residual = 0.016932, Final residual = 7.42008e-08, No Iterations 1
DILUPBiCGStab:  Solving for O2, Initial residual = 0.000320952, Final residual = 1.14677e-09, No Iterations 1
DILUPBiCGStab:  Solving for H2O, Initial residual = 0, Final residual = 0, No Iterations 0
DILUPBiCGStab:  Solving for CH4, Initial residual = 0, Final residual = 0, No Iterations 0
DILUPBiCGStab:  Solving for CO2, Initial residual = 0, Final residual = 0, No Iterations 0
Radiation solver iter: 0
GAMG:  Solving for ILambda_0_0, Initial residual = 0.183619, Final residual = 0.000307205, No Iterations 1
GAMG:  Solving for ILambda_1_0, Initial residual = 0.17536, Final residual = 0.000139482, No Iterations 1
GAMG:  Solving for ILambda_2_0, Initial residual = 0.154976, Final residual = 0.00428424, No Iterations 1
GAMG:  Solving for ILambda_3_0, Initial residual = 0.143166, Final residual = 0.00372786, No Iterations 1
GAMG:  Solving for ILambda_4_0, Initial residual = 0.143783, Final residual = 0.00336012, No Iterations 1
GAMG:  Solving for ILambda_5_0, Initial residual = 0.156233, Final residual = 0.00234478, No Iterations 1
GAMG:  Solving for ILambda_6_0, Initial residual = 0.176112, Final residual = 0.00118386, No Iterations 1
GAMG:  Solving for ILambda_7_0, Initial residual = 0.183705, Final residual = 0.000848074, No Iterations 1
GAMG:  Solving for ILambda_8_0, Initial residual = 0.183536, Final residual = 0.00546842, No Iterations 1
GAMG:  Solving for ILambda_9_0, Initial residual = 0.175556, Final residual = 0.00355329, No Iterations 1
GAMG:  Solving for ILambda_10_0, Initial residual = 0.155214, Final residual = 0.000754911, No Iterations 1
GAMG:  Solving for ILambda_11_0, Initial residual = 0.142927, Final residual = 0.000441478, No Iterations 1
GAMG:  Solving for ILambda_12_0, Initial residual = 0.143527, Final residual = 0.000227443, No Iterations 1
GAMG:  Solving for ILambda_13_0, Initial residual = 0.156538, Final residual = 0.00013902, No Iterations 1
GAMG:  Solving for ILambda_14_0, Initial residual = 0.176419, Final residual = 0.00545161, No Iterations 1
GAMG:  Solving for ILambda_15_0, Initial residual = 0.183675, Final residual = 0.00555031, No Iterations 1
DILUPBiCGStab:  Solving for h, Initial residual = 0.0918615, Final residual = 6.75734e-07, No Iterations 1
min/max(T) = 300, 300
GAMG:  Solving for p_rgh, Initial residual = 1.0994e-06, Final residual = 1.16137e-07, No Iterations 1
diagonal:  Solving for rho, Initial residual = 0, Final residual = 0, No Iterations 0
time step continuity errors : sum local = 1.16606e-12, global = 7.84678e-14, cumulative = 5.98707e-11
GAMG:  Solving for p_rgh, Initial residual = 1.1512e-07, Final residual = 1.1512e-07, No Iterations 0
diagonal:  Solving for rho, Initial residual = 0, Final residual = 0, No Iterations 0
time step continuity errors : sum local = 1.15585e-12, global = 8.02984e-14, cumulative = 5.9951e-11
DILUPBiCGStab:  Solving for k, Initial residual = 0.998378, Final residual = 1.22676e-10, No Iterations 1
ExecutionTime = 12.94 s  ClockTime = 12 s

Courant Number mean: 3.33185e-09 max: 1.08499e-08
deltaT = 0.01
Time = 0.31

diagonal:  Solving for rho, Initial residual = 0, Final residual = 0, No Iterations 0
PIMPLE: iteration 1
DILUPBiCGStab:  Solving for Ux, Initial residual = 0.0159712, Final residual = 1.05474e-07, No Iterations 1
DILUPBiCGStab:  Solving for Uy, Initial residual = 0.0318222, Final residual = 1.78786e-07, No Iterations 1
DILUPBiCGStab:  Solving for Uz, Initial residual = 0.0184411, Final residual = 7.97666e-08, No Iterations 1
DILUPBiCGStab:  Solving for O2, Initial residual = 0.000321031, Final residual = 1.11913e-09, No Iterations 1
DILUPBiCGStab:  Solving for H2O, Initial residual = 0, Final residual = 0, No Iterations 0
DILUPBiCGStab:  Solving for CH4, Initial residual = 0, Final residual = 0, No Iterations 0
DILUPBiCGStab:  Solving for CO2, Initial residual = 0, Final residual = 0, No Iterations 0
DILUPBiCGStab:  Solving for h, Initial residual = 0.0886683, Final residual = 7.18583e-07, No Iterations 1
min/max(T) = 300, 300
GAMG:  Solving for p_rgh, Initial residual = 4.23494e-07, Final residual = 4.23494e-07, No Iterations 0
diagonal:  Solving for rho, Initial residual = 0, Final residual = 0, No Iterations 0
time step continuity errors : sum local = 4.25205e-12, global = 1.67045e-12, cumulative = 6.16214e-11
GAMG:  Solving for p_rgh, Initial residual = 4.23494e-07, Final residual = 4.23494e-07, No Iterations 0
diagonal:  Solving for rho, Initial residual = 0, Final residual = 0, No Iterations 0
time step continuity errors : sum local = 4.25205e-12, global = 1.67045e-12, cumulative = 6.32919e-11
DILUPBiCGStab:  Solving for k, Initial residual = 0.998267, Final residual = 1.22651e-10, No Iterations 1
ExecutionTime = 13.34 s  ClockTime = 13 s

Courant Number mean: 3.44378e-09 max: 1.12174e-08
deltaT = 0.01
Time = 0.32

diagonal:  Solving for rho, Initial residual = 0, Final residual = 0, No Iterations 0
PIMPLE: iteration 1
DILUPBiCGStab:  Solving for Ux, Initial residual = 0.0154652, Final residual = 1.02127e-07, No Iterations 1
DILUPBiCGStab:  Solving for Uy, Initial residual = 0.0308306, Final residual = 1.73212e-07, No Iterations 1
DILUPBiCGStab:  Solving for Uz, Initial residual = 0.0177861, Final residual = 7.69406e-08, No Iterations 1
DILUPBiCGStab:  Solving for O2, Initial residual = 0.000319535, Final residual = 1.10214e-09, No Iterations 1
DILUPBiCGStab:  Solving for H2O, Initial residual = 0, Final residual = 0, No Iterations 0
DILUPBiCGStab:  Solving for CH4, Initial residual = 0, Final residual = 0, No Iterations 0
DILUPBiCGStab:  Solving for CO2, Initial residual = 0, Final residual = 0, No Iterations 0
DILUPBiCGStab:  Solving for h, Initial residual = 1.40088e-05, Final residual = 1.38488e-10, No Iterations 1
min/max(T) = 300, 300
GAMG:  Solving for p_rgh, Initial residual = 6.37313e-07, Final residual = 6.37313e-07, No Iterations 0
diagonal:  Solving for rho, Initial residual = 0, Final residual = 0, No Iterations 0
time step continuity errors : sum local = 6.39889e-12, global = 7.66716e-13, cumulative = 6.40586e-11
GAMG:  Solving for p_rgh, Initial residual = 6.37313e-07, Final residual = 6.37313e-07, No Iterations 0
diagonal:  Solving for rho, Initial residual = 0, Final residual = 0, No Iterations 0
time step continuity errors : sum local = 6.39889e-12, global = 7.66716e-13, cumulative = 6.48253e-11
DILUPBiCGStab:  Solving for k, Initial residual = 0.998152, Final residual = 1.22626e-10, No Iterations 1
ExecutionTime = 13.72 s  ClockTime = 13 s

Courant Number mean: 3.55571e-09 max: 1.15849e-08
deltaT = 0.01
Time = 0.33

diagonal:  Solving for rho, Initial residual = 0, Final residual = 0, No Iterations 0
PIMPLE: iteration 1
DILUPBiCGStab:  Solving for Ux, Initial residual = 0.0149902, Final residual = 9.89855e-08, No Iterations 1
DILUPBiCGStab:  Solving for Uy, Initial residual = 0.0298991, Final residual = 1.67977e-07, No Iterations 1
DILUPBiCGStab:  Solving for Uz, Initial residual = 0.0171758, Final residual = 7.43061e-08, No Iterations 1
DILUPBiCGStab:  Solving for O2, Initial residual = 0.000318487, Final residual = 1.13767e-09, No Iterations 1
DILUPBiCGStab:  Solving for H2O, Initial residual = 0, Final residual = 0, No Iterations 0
DILUPBiCGStab:  Solving for CH4, Initial residual = 0, Final residual = 0, No Iterations 0
DILUPBiCGStab:  Solving for CO2, Initial residual = 0, Final residual = 0, No Iterations 0
DILUPBiCGStab:  Solving for h, Initial residual = 6.47845e-06, Final residual = 5.54005e-11, No Iterations 1
min/max(T) = 300, 300
GAMG:  Solving for p_rgh, Initial residual = 8.89591e-07, Final residual = 8.89591e-07, No Iterations 0
diagonal:  Solving for rho, Initial residual = 0, Final residual = 0, No Iterations 0
time step continuity errors : sum local = 8.93186e-12, global = 4.06485e-13, cumulative = 6.52318e-11
GAMG:  Solving for p_rgh, Initial residual = 8.89591e-07, Final residual = 8.89591e-07, No Iterations 0
diagonal:  Solving for rho, Initial residual = 0, Final residual = 0, No Iterations 0
time step continuity errors : sum local = 8.93186e-12, global = 4.06485e-13, cumulative = 6.56383e-11
DILUPBiCGStab:  Solving for k, Initial residual = 0.998034, Final residual = 1.22601e-10, No Iterations 1
ExecutionTime = 14.14 s  ClockTime = 13 s

Courant Number mean: 3.66763e-09 max: 1.19524e-08
deltaT = 0.01
Time = 0.34

diagonal:  Solving for rho, Initial residual = 0, Final residual = 0, No Iterations 0
PIMPLE: iteration 1
DILUPBiCGStab:  Solving for Ux, Initial residual = 0.0145434, Final residual = 9.60308e-08, No Iterations 1
DILUPBiCGStab:  Solving for Uy, Initial residual = 0.0290222, Final residual = 1.63049e-07, No Iterations 1
DILUPBiCGStab:  Solving for Uz, Initial residual = 0.016606, Final residual = 7.18471e-08, No Iterations 1
DILUPBiCGStab:  Solving for O2, Initial residual = 0.000322155, Final residual = 1.11305e-09, No Iterations 1
DILUPBiCGStab:  Solving for H2O, Initial residual = 0, Final residual = 0, No Iterations 0
DILUPBiCGStab:  Solving for CH4, Initial residual = 0, Final residual = 0, No Iterations 0
DILUPBiCGStab:  Solving for CO2, Initial residual = 0, Final residual = 0, No Iterations 0
DILUPBiCGStab:  Solving for h, Initial residual = 6.47774e-06, Final residual = 5.54542e-11, No Iterations 1
min/max(T) = 300, 300
GAMG:  Solving for p_rgh, Initial residual = 1.14404e-06, Final residual = 1.33943e-07, No Iterations 1
diagonal:  Solving for rho, Initial residual = 0, Final residual = 0, No Iterations 0
time step continuity errors : sum local = 1.34485e-12, global = -1.82051e-14, cumulative = 6.56201e-11
GAMG:  Solving for p_rgh, Initial residual = 1.32903e-07, Final residual = 1.32903e-07, No Iterations 0
diagonal:  Solving for rho, Initial residual = 0, Final residual = 0, No Iterations 0
time step continuity errors : sum local = 1.3344e-12, global = -1.80479e-14, cumulative = 6.5602e-11
DILUPBiCGStab:  Solving for k, Initial residual = 0.997912, Final residual = 1.22575e-10, No Iterations 1
ExecutionTime = 14.55 s  ClockTime = 14 s

Courant Number mean: 3.78017e-09 max: 1.23175e-08
deltaT = 0.01
Time = 0.35

diagonal:  Solving for rho, Initial residual = 0, Final residual = 0, No Iterations 0
PIMPLE: iteration 1
DILUPBiCGStab:  Solving for Ux, Initial residual = 0.0144234, Final residual = 9.52274e-08, No Iterations 1
DILUPBiCGStab:  Solving for Uy, Initial residual = 0.0282336, Final residual = 1.58186e-07, No Iterations 1
DILUPBiCGStab:  Solving for Uz, Initial residual = 0.0163059, Final residual = 7.1037e-08, No Iterations 1
DILUPBiCGStab:  Solving for O2, Initial residual = 0.000324038, Final residual = 1.18099e-09, No Iterations 1
DILUPBiCGStab:  Solving for H2O, Initial residual = 0, Final residual = 0, No Iterations 0
DILUPBiCGStab:  Solving for CH4, Initial residual = 0, Final residual = 0, No Iterations 0
DILUPBiCGStab:  Solving for CO2, Initial residual = 0, Final residual = 0, No Iterations 0
DILUPBiCGStab:  Solving for h, Initial residual = 0.0301949, Final residual = 2.44042e-07, No Iterations 1
min/max(T) = 300, 300
GAMG:  Solving for p_rgh, Initial residual = 1.10728e-06, Final residual = 1.28555e-07, No Iterations 1
diagonal:  Solving for rho, Initial residual = 0, Final residual = 0, No Iterations 0
time step continuity errors : sum local = 1.29074e-12, global = -1.38025e-14, cumulative = 6.55882e-11
GAMG:  Solving for p_rgh, Initial residual = 1.27528e-07, Final residual = 1.27528e-07, No Iterations 0
diagonal:  Solving for rho, Initial residual = 0, Final residual = 0, No Iterations 0
time step continuity errors : sum local = 1.28043e-12, global = -1.39546e-14, cumulative = 6.55743e-11
DILUPBiCGStab:  Solving for k, Initial residual = 0.997786, Final residual = 1.22548e-10, No Iterations 1
ExecutionTime = 15.02 s  ClockTime = 14 s

Courant Number mean: 3.89295e-09 max: 1.26784e-08
deltaT = 0.01
Time = 0.36

diagonal:  Solving for rho, Initial residual = 0, Final residual = 0, No Iterations 0
PIMPLE: iteration 1
DILUPBiCGStab:  Solving for Ux, Initial residual = 0.0142808, Final residual = 9.41867e-08, No Iterations 1
DILUPBiCGStab:  Solving for Uy, Initial residual = 0.0275952, Final residual = 1.55977e-07, No Iterations 1
DILUPBiCGStab:  Solving for Uz, Initial residual = 0.0156821, Final residual = 6.86578e-08, No Iterations 1
DILUPBiCGStab:  Solving for O2, Initial residual = 0.000318547, Final residual = 1.10756e-09, No Iterations 1
DILUPBiCGStab:  Solving for H2O, Initial residual = 0, Final residual = 0, No Iterations 0
DILUPBiCGStab:  Solving for CH4, Initial residual = 0, Final residual = 0, No Iterations 0
DILUPBiCGStab:  Solving for CO2, Initial residual = 0, Final residual = 0, No Iterations 0
DILUPBiCGStab:  Solving for h, Initial residual = 0.0288495, Final residual = 2.25899e-07, No Iterations 1
min/max(T) = 300, 300
GAMG:  Solving for p_rgh, Initial residual = 3.79258e-07, Final residual = 3.79258e-07, No Iterations 0
diagonal:  Solving for rho, Initial residual = 0, Final residual = 0, No Iterations 0
time step continuity errors : sum local = 3.80791e-12, global = -5.15557e-13, cumulative = 6.50587e-11
GAMG:  Solving for p_rgh, Initial residual = 3.79258e-07, Final residual = 3.79258e-07, No Iterations 0
diagonal:  Solving for rho, Initial residual = 0, Final residual = 0, No Iterations 0
time step continuity errors : sum local = 3.8079e-12, global = -5.15557e-13, cumulative = 6.45432e-11
DILUPBiCGStab:  Solving for k, Initial residual = 0.997656, Final residual = 1.22521e-10, No Iterations 1
ExecutionTime = 15.46 s  ClockTime = 15 s

Courant Number mean: 4.00572e-09 max: 1.30393e-08
deltaT = 0.01
Time = 0.37

diagonal:  Solving for rho, Initial residual = 0, Final residual = 0, No Iterations 0
PIMPLE: iteration 1
DILUPBiCGStab:  Solving for Ux, Initial residual = 0.0138779, Final residual = 9.15261e-08, No Iterations 1
DILUPBiCGStab:  Solving for Uy, Initial residual = 0.0268509, Final residual = 1.51765e-07, No Iterations 1
DILUPBiCGStab:  Solving for Uz, Initial residual = 0.0152055, Final residual = 6.65715e-08, No Iterations 1
DILUPBiCGStab:  Solving for O2, Initial residual = 0.000323498, Final residual = 1.13377e-09, No Iterations 1
DILUPBiCGStab:  Solving for H2O, Initial residual = 0, Final residual = 0, No Iterations 0
DILUPBiCGStab:  Solving for CH4, Initial residual = 0, Final residual = 0, No Iterations 0
DILUPBiCGStab:  Solving for CO2, Initial residual = 0, Final residual = 0, No Iterations 0
DILUPBiCGStab:  Solving for h, Initial residual = 9.62101e-06, Final residual = 8.67263e-11, No Iterations 1
min/max(T) = 300, 300
GAMG:  Solving for p_rgh, Initial residual = 6.21061e-07, Final residual = 6.21061e-07, No Iterations 0
diagonal:  Solving for rho, Initial residual = 0, Final residual = 0, No Iterations 0
time step continuity errors : sum local = 6.23571e-12, global = -7.02732e-13, cumulative = 6.38404e-11
GAMG:  Solving for p_rgh, Initial residual = 6.21061e-07, Final residual = 6.21061e-07, No Iterations 0
diagonal:  Solving for rho, Initial residual = 0, Final residual = 0, No Iterations 0
time step continuity errors : sum local = 6.23571e-12, global = -7.02732e-13, cumulative = 6.31377e-11
DILUPBiCGStab:  Solving for k, Initial residual = 0.997523, Final residual = 1.22494e-10, No Iterations 1
ExecutionTime = 15.9 s  ClockTime = 15 s

Courant Number mean: 4.1185e-09 max: 1.34003e-08
deltaT = 0.01
Time = 0.38

diagonal:  Solving for rho, Initial residual = 0, Final residual = 0, No Iterations 0
PIMPLE: iteration 1
DILUPBiCGStab:  Solving for Ux, Initial residual = 0.013497, Final residual = 8.90105e-08, No Iterations 1
DILUPBiCGStab:  Solving for Uy, Initial residual = 0.0261455, Final residual = 1.47772e-07, No Iterations 1
DILUPBiCGStab:  Solving for Uz, Initial residual = 0.0147571, Final residual = 6.46096e-08, No Iterations 1
DILUPBiCGStab:  Solving for O2, Initial residual = 0.000322264, Final residual = 1.15563e-09, No Iterations 1
DILUPBiCGStab:  Solving for H2O, Initial residual = 0, Final residual = 0, No Iterations 0
DILUPBiCGStab:  Solving for CH4, Initial residual = 0, Final residual = 0, No Iterations 0
DILUPBiCGStab:  Solving for CO2, Initial residual = 0, Final residual = 0, No Iterations 0
DILUPBiCGStab:  Solving for h, Initial residual = 6.58081e-06, Final residual = 5.81775e-11, No Iterations 1
min/max(T) = 300, 300
GAMG:  Solving for p_rgh, Initial residual = 8.68029e-07, Final residual = 8.68029e-07, No Iterations 0
diagonal:  Solving for rho, Initial residual = 0, Final residual = 0, No Iterations 0
time step continuity errors : sum local = 8.71537e-12, global = -9.44918e-13, cumulative = 6.21928e-11
GAMG:  Solving for p_rgh, Initial residual = 8.68029e-07, Final residual = 8.68029e-07, No Iterations 0
diagonal:  Solving for rho, Initial residual = 0, Final residual = 0, No Iterations 0
time step continuity errors : sum local = 8.71537e-12, global = -9.44918e-13, cumulative = 6.12479e-11
DILUPBiCGStab:  Solving for k, Initial residual = 0.997386, Final residual = 1.22466e-10, No Iterations 1
ExecutionTime = 16.35 s  ClockTime = 16 s

Courant Number mean: 4.23128e-09 max: 1.37613e-08
deltaT = 0.01
Time = 0.39

diagonal:  Solving for rho, Initial residual = 0, Final residual = 0, No Iterations 0
PIMPLE: iteration 1
DILUPBiCGStab:  Solving for Ux, Initial residual = 0.0131364, Final residual = 8.66286e-08, No Iterations 1
DILUPBiCGStab:  Solving for Uy, Initial residual = 0.0254762, Final residual = 1.43984e-07, No Iterations 1
DILUPBiCGStab:  Solving for Uz, Initial residual = 0.0143344, Final residual = 6.27609e-08, No Iterations 1
DILUPBiCGStab:  Solving for O2, Initial residual = 0.000319382, Final residual = 1.11245e-09, No Iterations 1
DILUPBiCGStab:  Solving for H2O, Initial residual = 0, Final residual = 0, No Iterations 0
[...]
time step continuity errors : sum local = 9.13921e-12, global = -2.1373e-14, cumulative = 6.14255e-11
GAMG:  Solving for p_rgh, Initial residual = 9.10232e-07, Final residual = 9.10232e-07, No Iterations 0
diagonal:  Solving for rho, Initial residual = 0, Final residual = 0, No Iterations 0
time step continuity errors : sum local = 9.13921e-12, global = -2.1373e-14, cumulative = 6.14042e-11
DILUPBiCGStab:  Solving for k, Initial residual = 0.065478, Final residual = 3.64368e-07, No Iterations 1
ExecutionTime = 942.34 s  ClockTime = 943 s

Courant Number mean: 2.2119e-07 max: 7.23298e-07
deltaT = 0.01
Time = 19.91

diagonal:  Solving for rho, Initial residual = 0, Final residual = 0, No Iterations 0
PIMPLE: iteration 1
DILUPBiCGStab:  Solving for Ux, Initial residual = 0.00024451, Final residual = 1.47961e-09, No Iterations 1
DILUPBiCGStab:  Solving for Uy, Initial residual = 0.000501543, Final residual = 2.61752e-09, No Iterations 1
DILUPBiCGStab:  Solving for Uz, Initial residual = 0.000251185, Final residual = 1.0182e-09, No Iterations 1
DILUPBiCGStab:  Solving for O2, Initial residual = 0.000321652, Final residual = 1.02279e-09, No Iterations 1
DILUPBiCGStab:  Solving for H2O, Initial residual = 0, Final residual = 0, No Iterations 0
DILUPBiCGStab:  Solving for CH4, Initial residual = 0, Final residual = 0, No Iterations 0
DILUPBiCGStab:  Solving for CO2, Initial residual = 0, Final residual = 0, No Iterations 0
DILUPBiCGStab:  Solving for h, Initial residual = 4.27001e-06, Final residual = 3.45999e-11, No Iterations 1
min/max(T) = 300, 300
GAMG:  Solving for p_rgh, Initial residual = 1.11626e-06, Final residual = 1.15202e-07, No Iterations 1
diagonal:  Solving for rho, Initial residual = 0, Final residual = 0, No Iterations 0
time step continuity errors : sum local = 1.15669e-12, global = -2.02453e-15, cumulative = 6.14021e-11
GAMG:  Solving for p_rgh, Initial residual = 1.14751e-07, Final residual = 1.14751e-07, No Iterations 0
diagonal:  Solving for rho, Initial residual = 0, Final residual = 0, No Iterations 0
time step continuity errors : sum local = 1.15216e-12, global = -2.0442e-15, cumulative = 6.14001e-11
DILUPBiCGStab:  Solving for k, Initial residual = 0.065417, Final residual = 3.64013e-07, No Iterations 1
ExecutionTime = 942.8 s  ClockTime = 943 s

Courant Number mean: 2.21301e-07 max: 7.23661e-07
deltaT = 0.01
Time = 19.92

diagonal:  Solving for rho, Initial residual = 0, Final residual = 0, No Iterations 0
PIMPLE: iteration 1
DILUPBiCGStab:  Solving for Ux, Initial residual = 0.000247615, Final residual = 1.49076e-09, No Iterations 1
DILUPBiCGStab:  Solving for Uy, Initial residual = 0.000502191, Final residual = 2.62106e-09, No Iterations 1
DILUPBiCGStab:  Solving for Uz, Initial residual = 0.000250985, Final residual = 1.02165e-09, No Iterations 1
DILUPBiCGStab:  Solving for O2, Initial residual = 0.000321458, Final residual = 1.02072e-09, No Iterations 1
DILUPBiCGStab:  Solving for H2O, Initial residual = 0, Final residual = 0, No Iterations 0
DILUPBiCGStab:  Solving for CH4, Initial residual = 0, Final residual = 0, No Iterations 0
DILUPBiCGStab:  Solving for CO2, Initial residual = 0, Final residual = 0, No Iterations 0
DILUPBiCGStab:  Solving for h, Initial residual = 0.0385445, Final residual = 2.80238e-07, No Iterations 1
min/max(T) = 300, 300
GAMG:  Solving for p_rgh, Initial residual = 1.09441e-06, Final residual = 1.13586e-07, No Iterations 1
diagonal:  Solving for rho, Initial residual = 0, Final residual = 0, No Iterations 0
time step continuity errors : sum local = 1.14047e-12, global = 3.42695e-16, cumulative = 6.14004e-11
GAMG:  Solving for p_rgh, Initial residual = 1.13124e-07, Final residual = 1.13124e-07, No Iterations 0
diagonal:  Solving for rho, Initial residual = 0, Final residual = 0, No Iterations 0
time step continuity errors : sum local = 1.13582e-12, global = 3.24195e-16, cumulative = 6.14008e-11
DILUPBiCGStab:  Solving for k, Initial residual = 0.065356, Final residual = 3.63659e-07, No Iterations 1
ExecutionTime = 943.23 s  ClockTime = 943 s

Courant Number mean: 2.21413e-07 max: 7.24021e-07
deltaT = 0.01
Time = 19.93

diagonal:  Solving for rho, Initial residual = 0, Final residual = 0, No Iterations 0
PIMPLE: iteration 1
DILUPBiCGStab:  Solving for Ux, Initial residual = 0.000252662, Final residual = 1.52759e-09, No Iterations 1
DILUPBiCGStab:  Solving for Uy, Initial residual = 0.000501287, Final residual = 2.61733e-09, No Iterations 1
DILUPBiCGStab:  Solving for Uz, Initial residual = 0.000250409, Final residual = 1.01531e-09, No Iterations 1
DILUPBiCGStab:  Solving for O2, Initial residual = 0.000322112, Final residual = 1.00349e-09, No Iterations 1
DILUPBiCGStab:  Solving for H2O, Initial residual = 0, Final residual = 0, No Iterations 0
DILUPBiCGStab:  Solving for CH4, Initial residual = 0, Final residual = 0, No Iterations 0
DILUPBiCGStab:  Solving for CO2, Initial residual = 0, Final residual = 0, No Iterations 0
DILUPBiCGStab:  Solving for h, Initial residual = 0.023771, Final residual = 1.70883e-07, No Iterations 1
min/max(T) = 300, 300
GAMG:  Solving for p_rgh, Initial residual = 3.11389e-07, Final residual = 3.11389e-07, No Iterations 0
diagonal:  Solving for rho, Initial residual = 0, Final residual = 0, No Iterations 0
time step continuity errors : sum local = 3.12651e-12, global = -2.596e-15, cumulative = 6.13982e-11
GAMG:  Solving for p_rgh, Initial residual = 3.11389e-07, Final residual = 3.11389e-07, No Iterations 0
diagonal:  Solving for rho, Initial residual = 0, Final residual = 0, No Iterations 0
time step continuity errors : sum local = 3.12651e-12, global = -2.59596e-15, cumulative = 6.13956e-11
DILUPBiCGStab:  Solving for k, Initial residual = 0.0652951, Final residual = 3.63305e-07, No Iterations 1
ExecutionTime = 943.68 s  ClockTime = 944 s

Courant Number mean: 2.21524e-07 max: 7.24382e-07
deltaT = 0.01
Time = 19.94

diagonal:  Solving for rho, Initial residual = 0, Final residual = 0, No Iterations 0
PIMPLE: iteration 1
DILUPBiCGStab:  Solving for Ux, Initial residual = 0.00025254, Final residual = 1.52682e-09, No Iterations 1
DILUPBiCGStab:  Solving for Uy, Initial residual = 0.000501038, Final residual = 2.61591e-09, No Iterations 1
DILUPBiCGStab:  Solving for Uz, Initial residual = 0.000250286, Final residual = 1.01482e-09, No Iterations 1
DILUPBiCGStab:  Solving for O2, Initial residual = 0.000321206, Final residual = 1.06414e-09, No Iterations 1
DILUPBiCGStab:  Solving for H2O, Initial residual = 0, Final residual = 0, No Iterations 0
DILUPBiCGStab:  Solving for CH4, Initial residual = 0, Final residual = 0, No Iterations 0
DILUPBiCGStab:  Solving for CO2, Initial residual = 0, Final residual = 0, No Iterations 0
DILUPBiCGStab:  Solving for h, Initial residual = 6.73663e-06, Final residual = 5.54181e-11, No Iterations 1
min/max(T) = 300, 300
GAMG:  Solving for p_rgh, Initial residual = 5.47359e-07, Final residual = 5.47359e-07, No Iterations 0
diagonal:  Solving for rho, Initial residual = 0, Final residual = 0, No Iterations 0
time step continuity errors : sum local = 5.49578e-12, global = 1.24042e-14, cumulative = 6.1408e-11
GAMG:  Solving for p_rgh, Initial residual = 5.47359e-07, Final residual = 5.47359e-07, No Iterations 0
diagonal:  Solving for rho, Initial residual = 0, Final residual = 0, No Iterations 0
time step continuity errors : sum local = 5.49578e-12, global = 1.24043e-14, cumulative = 6.14204e-11
DILUPBiCGStab:  Solving for k, Initial residual = 0.0652343, Final residual = 3.62951e-07, No Iterations 1
ExecutionTime = 944.12 s  ClockTime = 944 s

Courant Number mean: 2.21635e-07 max: 7.24742e-07
deltaT = 0.01
Time = 19.95

diagonal:  Solving for rho, Initial residual = 0, Final residual = 0, No Iterations 0
PIMPLE: iteration 1
DILUPBiCGStab:  Solving for Ux, Initial residual = 0.000252418, Final residual = 1.52604e-09, No Iterations 1
DILUPBiCGStab:  Solving for Uy, Initial residual = 0.000500788, Final residual = 2.6145e-09, No Iterations 1
DILUPBiCGStab:  Solving for Uz, Initial residual = 0.000250163, Final residual = 1.01434e-09, No Iterations 1
DILUPBiCGStab:  Solving for O2, Initial residual = 0.000319857, Final residual = 1.03215e-09, No Iterations 1
DILUPBiCGStab:  Solving for H2O, Initial residual = 0, Final residual = 0, No Iterations 0
DILUPBiCGStab:  Solving for CH4, Initial residual = 0, Final residual = 0, No Iterations 0
DILUPBiCGStab:  Solving for CO2, Initial residual = 0, Final residual = 0, No Iterations 0
DILUPBiCGStab:  Solving for h, Initial residual = 4.34002e-06, Final residual = 3.49247e-11, No Iterations 1
min/max(T) = 300, 300
GAMG:  Solving for p_rgh, Initial residual = 7.7691e-07, Final residual = 7.7691e-07, No Iterations 0
diagonal:  Solving for rho, Initial residual = 0, Final residual = 0, No Iterations 0
time step continuity errors : sum local = 7.80059e-12, global = 2.32135e-14, cumulative = 6.14436e-11
GAMG:  Solving for p_rgh, Initial residual = 7.7691e-07, Final residual = 7.7691e-07, No Iterations 0
diagonal:  Solving for rho, Initial residual = 0, Final residual = 0, No Iterations 0
time step continuity errors : sum local = 7.80059e-12, global = 2.32135e-14, cumulative = 6.14668e-11
DILUPBiCGStab:  Solving for k, Initial residual = 0.0651736, Final residual = 3.62598e-07, No Iterations 1
ExecutionTime = 944.58 s  ClockTime = 945 s

Courant Number mean: 2.21746e-07 max: 7.25103e-07
deltaT = 0.01
Time = 19.96

diagonal:  Solving for rho, Initial residual = 0, Final residual = 0, No Iterations 0
PIMPLE: iteration 1
DILUPBiCGStab:  Solving for Ux, Initial residual = 0.000252295, Final residual = 1.52526e-09, No Iterations 1
DILUPBiCGStab:  Solving for Uy, Initial residual = 0.000500539, Final residual = 2.61309e-09, No Iterations 1
DILUPBiCGStab:  Solving for Uz, Initial residual = 0.00025004, Final residual = 1.01385e-09, No Iterations 1
DILUPBiCGStab:  Solving for O2, Initial residual = 0.000319903, Final residual = 1.01398e-09, No Iterations 1
DILUPBiCGStab:  Solving for H2O, Initial residual = 0, Final residual = 0, No Iterations 0
DILUPBiCGStab:  Solving for CH4, Initial residual = 0, Final residual = 0, No Iterations 0
DILUPBiCGStab:  Solving for CO2, Initial residual = 0, Final residual = 0, No Iterations 0
DILUPBiCGStab:  Solving for h, Initial residual = 4.33993e-06, Final residual = 3.49455e-11, No Iterations 1
min/max(T) = 300, 300
GAMG:  Solving for p_rgh, Initial residual = 1.00613e-06, Final residual = 1.0254e-07, No Iterations 1
diagonal:  Solving for rho, Initial residual = 0, Final residual = 0, No Iterations 0
time step continuity errors : sum local = 1.02956e-12, global = 2.72732e-15, cumulative = 6.14695e-11
GAMG:  Solving for p_rgh, Initial residual = 1.0216e-07, Final residual = 1.0216e-07, No Iterations 0
diagonal:  Solving for rho, Initial residual = 0, Final residual = 0, No Iterations 0
time step continuity errors : sum local = 1.02574e-12, global = 2.75127e-15, cumulative = 6.14723e-11
DILUPBiCGStab:  Solving for k, Initial residual = 0.065113, Final residual = 3.62245e-07, No Iterations 1
ExecutionTime = 945.04 s  ClockTime = 945 s

Courant Number mean: 2.21857e-07 max: 7.25467e-07
deltaT = 0.01
Time = 19.97

diagonal:  Solving for rho, Initial residual = 0, Final residual = 0, No Iterations 0
PIMPLE: iteration 1
DILUPBiCGStab:  Solving for Ux, Initial residual = 0.000243487, Final residual = 1.46835e-09, No Iterations 1
DILUPBiCGStab:  Solving for Uy, Initial residual = 0.000500684, Final residual = 2.61247e-09, No Iterations 1
DILUPBiCGStab:  Solving for Uz, Initial residual = 0.000250404, Final residual = 1.01798e-09, No Iterations 1
DILUPBiCGStab:  Solving for O2, Initial residual = 0.000322403, Final residual = 1.02774e-09, No Iterations 1
DILUPBiCGStab:  Solving for H2O, Initial residual = 0, Final residual = 0, No Iterations 0
DILUPBiCGStab:  Solving for CH4, Initial residual = 0, Final residual = 0, No Iterations 0
DILUPBiCGStab:  Solving for CO2, Initial residual = 0, Final residual = 0, No Iterations 0
DILUPBiCGStab:  Solving for h, Initial residual = 0.0520224, Final residual = 3.78922e-07, No Iterations 1
min/max(T) = 300, 300
GAMG:  Solving for p_rgh, Initial residual = 9.38627e-07, Final residual = 9.38627e-07, No Iterations 0
diagonal:  Solving for rho, Initial residual = 0, Final residual = 0, No Iterations 0
time step continuity errors : sum local = 9.42431e-12, global = 3.01917e-14, cumulative = 6.15025e-11
GAMG:  Solving for p_rgh, Initial residual = 9.38627e-07, Final residual = 9.38627e-07, No Iterations 0
diagonal:  Solving for rho, Initial residual = 0, Final residual = 0, No Iterations 0
time step continuity errors : sum local = 9.42431e-12, global = 3.01917e-14, cumulative = 6.15327e-11
DILUPBiCGStab:  Solving for k, Initial residual = 0.0650524, Final residual = 3.61893e-07, No Iterations 1
ExecutionTime = 945.47 s  ClockTime = 946 s

Courant Number mean: 2.21968e-07 max: 7.25831e-07
deltaT = 0.01
Time = 19.98

diagonal:  Solving for rho, Initial residual = 0, Final residual = 0, No Iterations 0
PIMPLE: iteration 1
DILUPBiCGStab:  Solving for Ux, Initial residual = 0.000243364, Final residual = 1.46755e-09, No Iterations 1
DILUPBiCGStab:  Solving for Uy, Initial residual = 0.000500438, Final residual = 2.61109e-09, No Iterations 1
DILUPBiCGStab:  Solving for Uz, Initial residual = 0.000250297, Final residual = 1.01787e-09, No Iterations 1
DILUPBiCGStab:  Solving for O2, Initial residual = 0.000321717, Final residual = 1.01017e-09, No Iterations 1
DILUPBiCGStab:  Solving for H2O, Initial residual = 0, Final residual = 0, No Iterations 0
DILUPBiCGStab:  Solving for CH4, Initial residual = 0, Final residual = 0, No Iterations 0
DILUPBiCGStab:  Solving for CO2, Initial residual = 0, Final residual = 0, No Iterations 0
DILUPBiCGStab:  Solving for h, Initial residual = 1.24461e-05, Final residual = 1.08643e-10, No Iterations 1
min/max(T) = 300, 300
GAMG:  Solving for p_rgh, Initial residual = 1.69543e-06, Final residual = 1.77165e-07, No Iterations 1
diagonal:  Solving for rho, Initial residual = 0, Final residual = 0, No Iterations 0
time step continuity errors : sum local = 1.77883e-12, global = -1.48462e-15, cumulative = 6.15312e-11
GAMG:  Solving for p_rgh, Initial residual = 1.76428e-07, Final residual = 1.76428e-07, No Iterations 0
diagonal:  Solving for rho, Initial residual = 0, Final residual = 0, No Iterations 0
time step continuity errors : sum local = 1.77143e-12, global = -1.4663e-15, cumulative = 6.15297e-11
DILUPBiCGStab:  Solving for k, Initial residual = 0.064992, Final residual = 3.61542e-07, No Iterations 1
ExecutionTime = 945.92 s  ClockTime = 946 s

Courant Number mean: 2.22079e-07 max: 7.26197e-07
deltaT = 0.01
Time = 19.99

diagonal:  Solving for rho, Initial residual = 0, Final residual = 0, No Iterations 0
PIMPLE: iteration 1
DILUPBiCGStab:  Solving for Ux, Initial residual = 0.000244468, Final residual = 1.48559e-09, No Iterations 1
DILUPBiCGStab:  Solving for Uy, Initial residual = 0.000500358, Final residual = 2.60975e-09, No Iterations 1
DILUPBiCGStab:  Solving for Uz, Initial residual = 0.000250498, Final residual = 1.01948e-09, No Iterations 1
DILUPBiCGStab:  Solving for O2, Initial residual = 0.000319239, Final residual = 1.00396e-09, No Iterations 1
DILUPBiCGStab:  Solving for H2O, Initial residual = 0, Final residual = 0, No Iterations 0
DILUPBiCGStab:  Solving for CH4, Initial residual = 0, Final residual = 0, No Iterations 0
DILUPBiCGStab:  Solving for CO2, Initial residual = 0, Final residual = 0, No Iterations 0
DILUPBiCGStab:  Solving for h, Initial residual = 0.0221323, Final residual = 1.54272e-07, No Iterations 1
min/max(T) = 300, 300
GAMG:  Solving for p_rgh, Initial residual = 1.19884e-06, Final residual = 1.26217e-07, No Iterations 1
diagonal:  Solving for rho, Initial residual = 0, Final residual = 0, No Iterations 0
time step continuity errors : sum local = 1.26728e-12, global = -8.63385e-16, cumulative = 6.15288e-11
GAMG:  Solving for p_rgh, Initial residual = 1.25677e-07, Final residual = 1.25677e-07, No Iterations 0
diagonal:  Solving for rho, Initial residual = 0, Final residual = 0, No Iterations 0
time step continuity errors : sum local = 1.26186e-12, global = -8.55437e-16, cumulative = 6.1528e-11
DILUPBiCGStab:  Solving for k, Initial residual = 0.0649316, Final residual = 3.61191e-07, No Iterations 1
ExecutionTime = 946.37 s  ClockTime = 947 s

Courant Number mean: 2.2219e-07 max: 7.26563e-07
deltaT = 0.01
Time = 20

diagonal:  Solving for rho, Initial residual = 0, Final residual = 0, No Iterations 0
PIMPLE: iteration 1
DILUPBiCGStab:  Solving for Ux, Initial residual = 0.000245004, Final residual = 1.49133e-09, No Iterations 1
DILUPBiCGStab:  Solving for Uy, Initial residual = 0.000499262, Final residual = 2.60432e-09, No Iterations 1
DILUPBiCGStab:  Solving for Uz, Initial residual = 0.000250222, Final residual = 1.01385e-09, No Iterations 1
DILUPBiCGStab:  Solving for O2, Initial residual = 0.000320668, Final residual = 1.03424e-09, No Iterations 1
DILUPBiCGStab:  Solving for H2O, Initial residual = 0, Final residual = 0, No Iterations 0
DILUPBiCGStab:  Solving for CH4, Initial residual = 0, Final residual = 0, No Iterations 0
DILUPBiCGStab:  Solving for CO2, Initial residual = 0, Final residual = 0, No Iterations 0
Radiation solver iter: 0
GAMG:  Solving for ILambda_0_0, Initial residual = 0.0105687, Final residual = 5.7808e-05, No Iterations 1
GAMG:  Solving for ILambda_1_0, Initial residual = 0.00979015, Final residual = 3.83143e-05, No Iterations 1
GAMG:  Solving for ILambda_2_0, Initial residual = 0.00821253, Final residual = 0.000109488, No Iterations 1
GAMG:  Solving for ILambda_3_0, Initial residual = 0.0073225, Final residual = 0.00015975, No Iterations 1
GAMG:  Solving for ILambda_4_0, Initial residual = 0.00733271, Final residual = 0.000154344, No Iterations 1
GAMG:  Solving for ILambda_5_0, Initial residual = 0.00808064, Final residual = 0.000107342, No Iterations 1
GAMG:  Solving for ILambda_6_0, Initial residual = 0.00968482, Final residual = 8.40738e-05, No Iterations 1
GAMG:  Solving for ILambda_7_0, Initial residual = 0.0105777, Final residual = 7.9472e-05, No Iterations 1
GAMG:  Solving for ILambda_8_0, Initial residual = 0.0105078, Final residual = 0.000299557, No Iterations 1
GAMG:  Solving for ILambda_9_0, Initial residual = 0.00967394, Final residual = 0.000190941, No Iterations 1
GAMG:  Solving for ILambda_10_0, Initial residual = 0.00807319, Final residual = 5.03672e-05, No Iterations 1
GAMG:  Solving for ILambda_11_0, Initial residual = 0.00719625, Final residual = 5.9914e-05, No Iterations 1
GAMG:  Solving for ILambda_12_0, Initial residual = 0.00720622, Final residual = 5.68308e-05, No Iterations 1
GAMG:  Solving for ILambda_13_0, Initial residual = 0.00794032, Final residual = 4.32508e-05, No Iterations 1
GAMG:  Solving for ILambda_14_0, Initial residual = 0.00957678, Final residual = 0.000222066, No Iterations 1
GAMG:  Solving for ILambda_15_0, Initial residual = 0.0105269, Final residual = 0.000335699, No Iterations 1
DILUPBiCGStab:  Solving for h, Initial residual = 0.00649915, Final residual = 2.90032e-08, No Iterations 1
min/max(T) = 300, 300
GAMG:  Solving for p_rgh, Initial residual = 4.16293e-07, Final residual = 4.16293e-07, No Iterations 0
diagonal:  Solving for rho, Initial residual = 0, Final residual = 0, No Iterations 0
time step continuity errors : sum local = 4.17981e-12, global = -9.40621e-15, cumulative = 6.15186e-11
GAMG:  Solving for p_rgh, Initial residual = 4.16293e-07, Final residual = 4.16293e-07, No Iterations 0
diagonal:  Solving for rho, Initial residual = 0, Final residual = 0, No Iterations 0
time step continuity errors : sum local = 4.1798e-12, global = -9.40609e-15, cumulative = 6.15092e-11
DILUPBiCGStab:  Solving for k, Initial residual = 0.0648713, Final residual = 3.6084e-07, No Iterations 1
ExecutionTime = 947.05 s  ClockTime = 947 s

End

Finalising parallel run
